REMARK VINA RESULT:      -9.5      1.967      3.410
REMARK  21 active torsions:
REMARK  status: ('A' for Active; 'I' for Inactive)
REMARK    1  A    between atoms: C_1  and  C_25 
REMARK    2  A    between atoms: C_5  and  O_6 
REMARK    3  A    between atoms: O_6  and  C_7 
REMARK    4  A    between atoms: C_7  and  C_9 
REMARK    5  A    between atoms: C_11  and  O_12 
REMARK    6  A    between atoms: C_13  and  O_14 
REMARK    7  A    between atoms: C_15  and  O_16 
REMARK    8  A    between atoms: C_19  and  O_20 
REMARK    9  A    between atoms: C_23  and  O_24 
REMARK   10  A    between atoms: C_27  and  O_28 
REMARK   11  A    between atoms: C_29  and  O_30 
REMARK   12  A    between atoms: O_30  and  C_31 
REMARK   13  A    between atoms: C_31  and  C_33 
REMARK   14  A    between atoms: C_35  and  O_36 
REMARK   15  A    between atoms: C_37  and  O_38 
REMARK   16  A    between atoms: C_39  and  O_40 
REMARK   17  A    between atoms: C_43  and  O_44 
REMARK   18  A    between atoms: C_48  and  C_51 
REMARK   19  A    between atoms: C_55  and  O_56 
REMARK   20  A    between atoms: C_58  and  O_59 
REMARK   21  A    between atoms: C_62  and  O_63 
ROOT
ATOM      1  C   UNL d   1      13.383   2.629  21.460  0.00  0.00     0.007 A 
ATOM      2  C   UNL d   1      14.654   3.005  21.008  0.00  0.00     0.057 A 
ATOM      3  C   UNL d   1      14.872   4.235  20.416  0.00  0.00     0.160 A 
ATOM      4  C   UNL d   1      13.832   5.162  20.317  0.00  0.00     0.184 A 
ATOM      5  C   UNL d   1      12.505   4.819  20.715  0.00  0.00     0.074 A 
ATOM      6  C   UNL d   1      11.496   5.800  20.526  0.00  0.00     0.175 C 
ATOM      7  C   UNL d   1      10.400   6.004  21.379  0.00  0.00     0.221 C 
ATOM      8  O   UNL d   1       9.892   7.158  21.411  0.00  0.00    -0.284 OA
ATOM      9  C   UNL d   1       9.794   5.046  22.182  0.00  0.00     0.062 C 
ATOM     10  C   UNL d   1       9.870   3.667  21.996  0.00  0.00    -0.001 C 
ATOM     11  C   UNL d   1      10.977   3.002  21.465  0.00  0.00     0.016 C 
ATOM     12  C   UNL d   1      12.271   3.516  21.264  0.00  0.00    -0.003 A 
ENDROOT
BRANCH   1  13
ATOM     13  C   UNL d   1      13.304   1.376  22.341  0.00  0.00     0.233 C 
ATOM     14  O   UNL d   1      12.258   0.505  21.908  0.00  0.00    -0.481 OA
ATOM     15  C   UNL d   1      12.195  -0.837  22.298  0.00  0.00     0.132 A 
ATOM     16  C   UNL d   1      11.038  -1.568  22.023  0.00  0.00     0.092 A 
ATOM     17  C   UNL d   1      13.291  -1.452  22.942  0.00  0.00     0.038 A 
ATOM     18  C   UNL d   1      10.938  -2.910  22.397  0.00  0.00     0.139 A 
ATOM     19  C   UNL d   1      12.000  -3.510  23.095  0.00  0.00     0.092 A 
ATOM     20  C   UNL d   1      13.166  -2.791  23.380  0.00  0.00     0.127 A 
ATOM     21  C   UNL d   1      14.553  -0.653  23.203  0.00  0.00     0.078 C 
ATOM     22  C   UNL d   1      14.650   0.620  22.336  0.00  0.00     0.164 C 
BRANCH  18  23
ATOM     23  O   UNL d   1       9.751  -3.598  22.103  0.00  0.00    -0.422 OA
BRANCH  23  24
ATOM     24  C   UNL d   1       8.562  -3.522  22.841  0.00  0.00     0.345 C 
ATOM     25  O   UNL d   1       7.673  -2.681  22.532  0.00  0.00    -0.244 OA
BRANCH  24  26
ATOM     26  C   UNL d   1       8.376  -4.393  24.023  0.00  0.00     0.067 A 
ATOM     27  C   UNL d   1       9.263  -5.452  24.281  0.00  0.00     0.064 A 
ATOM     28  C   UNL d   1       9.093  -6.278  25.398  0.00  0.00     0.163 A 
ATOM     29  C   UNL d   1       8.013  -6.046  26.283  0.00  0.00     0.201 A 
ATOM     30  C   UNL d   1       7.127  -4.988  26.027  0.00  0.00     0.163 A 
ATOM     31  C   UNL d   1       7.309  -4.169  24.906  0.00  0.00     0.064 A 
BRANCH  28  32
ATOM     32  O   UNL d   1      10.014  -7.311  25.588  0.00  0.00    -0.503 OA
ATOM     33  H   UNL d   1      11.013  -7.204  25.485  0.00  0.00     0.292 HD
ENDBRANCH  28  32
BRANCH  29  34
ATOM     34  O   UNL d   1       7.786  -6.832  27.414  0.00  0.00    -0.501 OA
ATOM     35  H   UNL d   1       7.755  -7.841  27.406  0.00  0.00     0.292 HD
ENDBRANCH  29  34
BRANCH  30  36
ATOM     36  O   UNL d   1       6.064  -4.758  26.899  0.00  0.00    -0.503 OA
ATOM     37  H   UNL d   1       5.135  -4.536  26.557  0.00  0.00     0.292 HD
ENDBRANCH  30  36
ENDBRANCH  24  26
ENDBRANCH  23  24
ENDBRANCH  18  23
BRANCH  20  38
ATOM     38  O   UNL d   1      14.171  -3.432  24.108  0.00  0.00    -0.506 OA
ATOM     39  H   UNL d   1      15.020  -2.971  24.407  0.00  0.00     0.292 HD
ENDBRANCH  20  38
BRANCH  22  40
ATOM     40  O   UNL d   1      15.068   0.306  21.028  0.00  0.00    -0.388 OA
ATOM     41  H   UNL d   1      15.652  -0.494  21.074  0.00  0.00     0.210 HD
ENDBRANCH  22  40
ENDBRANCH   1  13
BRANCH   3  42
ATOM     42  O   UNL d   1      16.140   4.554  19.927  0.00  0.00    -0.503 OA
ATOM     43  H   UNL d   1      16.811   3.838  19.674  0.00  0.00     0.292 HD
ENDBRANCH   3  42
BRANCH   4  44
ATOM     44  O   UNL d   1      14.117   6.447  19.826  0.00  0.00    -0.418 OA
BRANCH  44  45
ATOM     45  C   UNL d   1      14.500   7.531  20.627  0.00  0.00     0.345 C 
ATOM     46  O   UNL d   1      14.513   8.700  20.149  0.00  0.00    -0.244 OA
BRANCH  45  47
ATOM     47  C   UNL d   1      14.928   7.294  22.024  0.00  0.00     0.067 A 
ATOM     48  C   UNL d   1      13.980   7.155  23.052  0.00  0.00     0.064 A 
ATOM     49  C   UNL d   1      14.389   6.932  24.373  0.00  0.00     0.163 A 
ATOM     50  C   UNL d   1      15.752   6.846  24.680  0.00  0.00     0.201 A 
ATOM     51  C   UNL d   1      16.709   6.983  23.661  0.00  0.00     0.163 A 
ATOM     52  C   UNL d   1      16.295   7.205  22.339  0.00  0.00     0.064 A 
BRANCH  49  53
ATOM     53  O   UNL d   1      13.444   6.795  25.388  0.00  0.00    -0.503 OA
ATOM     54  H   UNL d   1      12.883   7.579  25.702  0.00  0.00     0.292 HD
ENDBRANCH  49  53
BRANCH  50  55
ATOM     55  O   UNL d   1      16.140   6.624  26.002  0.00  0.00    -0.501 OA
ATOM     56  H   UNL d   1      15.590   6.953  26.787  0.00  0.00     0.292 HD
ENDBRANCH  50  55
BRANCH  51  57
ATOM     57  O   UNL d   1      18.067   6.899  23.963  0.00  0.00    -0.503 OA
ATOM     58  H   UNL d   1      18.769   7.335  23.377  0.00  0.00     0.292 HD
ENDBRANCH  51  57
ENDBRANCH  45  47
ENDBRANCH  44  45
ENDBRANCH   4  44
BRANCH  10  59
ATOM     59  C   UNL d   1       8.716   2.817  22.513  0.00  0.00     0.232 C 
ATOM     60  O   UNL d   1       8.445   3.145  23.877  0.00  0.00    -0.481 OA
ATOM     61  C   UNL d   1       7.732   2.292  24.727  0.00  0.00     0.132 A 
ATOM     62  C   UNL d   1       7.350   2.756  25.988  0.00  0.00     0.091 A 
ATOM     63  C   UNL d   1       7.418   0.977  24.326  0.00  0.00     0.038 A 
ATOM     64  C   UNL d   1       6.624   1.932  26.852  0.00  0.00     0.124 A 
ATOM     65  C   UNL d   1       6.271   0.643  26.448  0.00  0.00     0.091 A 
ATOM     66  C   UNL d   1       6.644   0.161  25.188  0.00  0.00     0.127 A 
ATOM     67  C   UNL d   1       7.861   0.487  22.964  0.00  0.00     0.078 C 
ATOM     68  C   UNL d   1       9.026   1.315  22.388  0.00  0.00     0.164 C 
BRANCH  64  69
ATOM     69  O   UNL d   1       6.240   2.387  28.113  0.00  0.00    -0.506 OA
ATOM     70  H   UNL d   1       5.429   2.008  28.588  0.00  0.00     0.292 HD
ENDBRANCH  64  69
BRANCH  66  71
ATOM     71  O   UNL d   1       6.221  -1.118  24.822  0.00  0.00    -0.506 OA
ATOM     72  H   UNL d   1       5.560  -1.662  25.360  0.00  0.00     0.292 HD
ENDBRANCH  66  71
BRANCH  68  73
ATOM     73  O   UNL d   1       9.216   0.982  21.037  0.00  0.00    -0.388 OA
ATOM     74  H   UNL d   1       8.331   1.067  20.594  0.00  0.00     0.210 HD
ENDBRANCH  68  73
ENDBRANCH  10  59
BRANCH   6  75
ATOM     75  O   UNL d   1      11.663   6.717  19.479  0.00  0.00    -0.503 OA
ATOM     76  H   UNL d   1      12.414   7.398  19.448  0.00  0.00     0.292 HD
ENDBRANCH   6  75
TORSDOF 21
