REMARK VINA RESULT:      -9.3      1.366      2.278
REMARK  21 active torsions:
REMARK  status: ('A' for Active; 'I' for Inactive)
REMARK    1  A    between atoms: C_1  and  C_25 
REMARK    2  A    between atoms: C_5  and  O_6 
REMARK    3  A    between atoms: O_6  and  C_7 
REMARK    4  A    between atoms: C_7  and  C_9 
REMARK    5  A    between atoms: C_11  and  O_12 
REMARK    6  A    between atoms: C_13  and  O_14 
REMARK    7  A    between atoms: C_15  and  O_16 
REMARK    8  A    between atoms: C_19  and  O_20 
REMARK    9  A    between atoms: C_23  and  O_24 
REMARK   10  A    between atoms: C_27  and  O_28 
REMARK   11  A    between atoms: C_29  and  O_30 
REMARK   12  A    between atoms: O_30  and  C_31 
REMARK   13  A    between atoms: C_31  and  C_33 
REMARK   14  A    between atoms: C_35  and  O_36 
REMARK   15  A    between atoms: C_37  and  O_38 
REMARK   16  A    between atoms: C_39  and  O_40 
REMARK   17  A    between atoms: C_43  and  O_44 
REMARK   18  A    between atoms: C_48  and  C_51 
REMARK   19  A    between atoms: C_55  and  O_56 
REMARK   20  A    between atoms: C_58  and  O_59 
REMARK   21  A    between atoms: C_62  and  O_63 
ROOT
ATOM      1  C   UNL d   1      13.648   2.666  22.601  0.00  0.00     0.007 A 
ATOM      2  C   UNL d   1      14.985   3.015  22.368  0.00  0.00     0.057 A 
ATOM      3  C   UNL d   1      15.318   4.192  21.722  0.00  0.00     0.160 A 
ATOM      4  C   UNL d   1      14.321   5.096  21.347  0.00  0.00     0.184 A 
ATOM      5  C   UNL d   1      12.941   4.774  21.515  0.00  0.00     0.074 A 
ATOM      6  C   UNL d   1      11.992   5.723  21.053  0.00  0.00     0.175 C 
ATOM      7  C   UNL d   1      10.755   5.988  21.661  0.00  0.00     0.221 C 
ATOM      8  O   UNL d   1      10.257   7.135  21.496  0.00  0.00    -0.284 OA
ATOM      9  C   UNL d   1      10.002   5.097  22.415  0.00  0.00     0.062 C 
ATOM     10  C   UNL d   1      10.104   3.708  22.368  0.00  0.00    -0.001 C 
ATOM     11  C   UNL d   1      11.288   3.011  22.117  0.00  0.00     0.016 C 
ATOM     12  C   UNL d   1      12.599   3.521  22.121  0.00  0.00    -0.003 A 
ENDROOT
BRANCH   1  13
ATOM     13  C   UNL d   1      13.397   1.493  23.557  0.00  0.00     0.233 C 
ATOM     14  O   UNL d   1      13.340   0.254  22.849  0.00  0.00    -0.481 OA
ATOM     15  C   UNL d   1      13.474  -0.980  23.495  0.00  0.00     0.132 A 
ATOM     16  C   UNL d   1      13.190  -2.149  22.786  0.00  0.00     0.092 A 
ATOM     17  C   UNL d   1      13.910  -1.048  24.837  0.00  0.00     0.038 A 
ATOM     18  C   UNL d   1      13.312  -3.400  23.396  0.00  0.00     0.139 A 
ATOM     19  C   UNL d   1      13.684  -3.471  24.749  0.00  0.00     0.092 A 
ATOM     20  C   UNL d   1      13.971  -2.309  25.475  0.00  0.00     0.127 A 
ATOM     21  C   UNL d   1      14.248   0.229  25.581  0.00  0.00     0.078 C 
ATOM     22  C   UNL d   1      14.494   1.427  24.641  0.00  0.00     0.164 C 
BRANCH  18  23
ATOM     23  O   UNL d   1      13.008  -4.543  22.642  0.00  0.00    -0.422 OA
BRANCH  23  24
ATOM     24  C   UNL d   1      11.718  -4.992  22.330  0.00  0.00     0.345 C 
ATOM     25  O   UNL d   1      11.407  -6.204  22.497  0.00  0.00    -0.244 OA
BRANCH  24  26
ATOM     26  C   UNL d   1      10.736  -4.051  21.747  0.00  0.00     0.067 A 
ATOM     27  C   UNL d   1       9.496  -3.828  22.372  0.00  0.00     0.064 A 
ATOM     28  C   UNL d   1       8.564  -2.937  21.827  0.00  0.00     0.163 A 
ATOM     29  C   UNL d   1       8.871  -2.250  20.628  0.00  0.00     0.201 A 
ATOM     30  C   UNL d   1      10.107  -2.471  20.004  0.00  0.00     0.163 A 
ATOM     31  C   UNL d   1      11.031  -3.364  20.560  0.00  0.00     0.064 A 
BRANCH  28  32
ATOM     32  O   UNL d   1       7.354  -2.769  22.504  0.00  0.00    -0.503 OA
ATOM     33  H   UNL d   1       7.281  -2.587  23.495  0.00  0.00     0.292 HD
ENDBRANCH  28  32
BRANCH  29  34
ATOM     34  O   UNL d   1       7.986  -1.349  20.032  0.00  0.00    -0.501 OA
ATOM     35  H   UNL d   1       8.163  -0.360  19.937  0.00  0.00     0.292 HD
ENDBRANCH  29  34
BRANCH  30  36
ATOM     36  O   UNL d   1      10.411  -1.792  18.824  0.00  0.00    -0.503 OA
ATOM     37  H   UNL d   1      10.968  -0.945  18.826  0.00  0.00     0.292 HD
ENDBRANCH  30  36
ENDBRANCH  24  26
ENDBRANCH  23  24
ENDBRANCH  18  23
BRANCH  20  38
ATOM     38  O   UNL d   1      14.300  -2.443  26.825  0.00  0.00    -0.506 OA
ATOM     39  H   UNL d   1      13.850  -3.105  27.444  0.00  0.00     0.292 HD
ENDBRANCH  20  38
BRANCH  22  40
ATOM     40  O   UNL d   1      15.783   1.366  24.076  0.00  0.00    -0.388 OA
ATOM     41  H   UNL d   1      15.825   0.567  23.490  0.00  0.00     0.210 HD
ENDBRANCH  22  40
ENDBRANCH   1  13
BRANCH   3  42
ATOM     42  O   UNL d   1      16.657   4.481  21.456  0.00  0.00    -0.503 OA
ATOM     43  H   UNL d   1      17.336   3.750  21.277  0.00  0.00     0.292 HD
ENDBRANCH   3  42
BRANCH   4  44
ATOM     44  O   UNL d   1      14.701   6.336  20.809  0.00  0.00    -0.418 OA
BRANCH  44  45
ATOM     45  C   UNL d   1      14.830   7.514  21.556  0.00  0.00     0.345 C 
ATOM     46  O   UNL d   1      14.710   8.638  20.994  0.00  0.00    -0.244 OA
BRANCH  45  47
ATOM     47  C   UNL d   1      15.147   7.435  22.999  0.00  0.00     0.067 A 
ATOM     48  C   UNL d   1      16.453   7.672  23.462  0.00  0.00     0.064 A 
ATOM     49  C   UNL d   1      16.749   7.595  24.830  0.00  0.00     0.163 A 
ATOM     50  C   UNL d   1      15.741   7.281  25.749  0.00  0.00     0.201 A 
ATOM     51  C   UNL d   1      14.432   7.044  25.298  0.00  0.00     0.163 A 
ATOM     52  C   UNL d   1      14.140   7.122  23.928  0.00  0.00     0.064 A 
BRANCH  49  53
ATOM     53  O   UNL d   1      18.046   7.830  25.283  0.00  0.00    -0.503 OA
ATOM     54  H   UNL d   1      18.688   8.424  24.771  0.00  0.00     0.292 HD
ENDBRANCH  49  53
BRANCH  50  55
ATOM     55  O   UNL d   1      16.055   7.209  27.107  0.00  0.00    -0.501 OA
ATOM     56  H   UNL d   1      15.419   7.535  27.825  0.00  0.00     0.292 HD
ENDBRANCH  50  55
BRANCH  51  57
ATOM     57  O   UNL d   1      13.426   6.731  26.210  0.00  0.00    -0.503 OA
ATOM     58  H   UNL d   1      13.592   6.108  26.992  0.00  0.00     0.292 HD
ENDBRANCH  51  57
ENDBRANCH  45  47
ENDBRANCH  44  45
ENDBRANCH   4  44
BRANCH  10  59
ATOM     59  C   UNL d   1       8.868   2.894  22.730  0.00  0.00     0.232 C 
ATOM     60  O   UNL d   1       8.523   3.115  24.097  0.00  0.00    -0.481 OA
ATOM     61  C   UNL d   1       7.703   2.240  24.817  0.00  0.00     0.132 A 
ATOM     62  C   UNL d   1       7.263   2.614  26.089  0.00  0.00     0.091 A 
ATOM     63  C   UNL d   1       7.338   0.989  24.276  0.00  0.00     0.038 A 
ATOM     64  C   UNL d   1       6.430   1.765  26.825  0.00  0.00     0.124 A 
ATOM     65  C   UNL d   1       6.029   0.543  26.280  0.00  0.00     0.091 A 
ATOM     66  C   UNL d   1       6.459   0.153  25.007  0.00  0.00     0.127 A 
ATOM     67  C   UNL d   1       7.845   0.594  22.905  0.00  0.00     0.078 C 
ATOM     68  C   UNL d   1       9.095   1.392  22.484  0.00  0.00     0.164 C 
BRANCH  64  69
ATOM     69  O   UNL d   1       5.988   2.130  28.095  0.00  0.00    -0.506 OA
ATOM     70  H   UNL d   1       5.011   2.325  28.281  0.00  0.00     0.292 HD
ENDBRANCH  64  69
BRANCH  66  71
ATOM     71  O   UNL d   1       5.987  -1.058  24.496  0.00  0.00    -0.506 OA
ATOM     72  H   UNL d   1       6.565  -1.710  23.984  0.00  0.00     0.292 HD
ENDBRANCH  66  71
BRANCH  68  73
ATOM     73  O   UNL d   1       9.357   1.169  21.123  0.00  0.00    -0.388 OA
ATOM     74  H   UNL d   1       8.633   0.579  20.784  0.00  0.00     0.210 HD
ENDBRANCH  68  73
ENDBRANCH  10  59
BRANCH   6  75
ATOM     75  O   UNL d   1      12.359   6.548  19.981  0.00  0.00    -0.503 OA
ATOM     76  H   UNL d   1      12.693   7.498  20.097  0.00  0.00     0.292 HD
ENDBRANCH   6  75
TORSDOF 21
