REMARK  16 active torsions:
REMARK  status: ('A' for Active; 'I' for Inactive)
REMARK    1  A    between atoms: O_1  and  C_2 
REMARK    2  A    between atoms: C_5  and  O_6 
REMARK    3  A    between atoms: C_8  and  O_9 
REMARK    4  A    between atoms: C_13  and  C_14 
REMARK    5  A    between atoms: C_18  and  O_19 
REMARK    6  A    between atoms: C_20  and  O_21 
REMARK    7  A    between atoms: C_23  and  C_24 
REMARK    8  A    between atoms: C_29  and  O_30 
REMARK    9  A    between atoms: O_30  and  C_31 
REMARK   10  A    between atoms: C_31  and  C_33 
REMARK   11  A    between atoms: C_35  and  O_36 
REMARK   12  A    between atoms: C_37  and  O_38 
REMARK   13  A    between atoms: C_39  and  O_40 
REMARK   14  A    between atoms: C_42  and  O_43 
REMARK   15  A    between atoms: C_45  and  O_46 
REMARK   16  A    between atoms: C_50  and  O_51 
ROOT
ATOM      1  C   UNL d   1       2.807  -0.768   1.380  0.00  0.00    -0.001 C 
ATOM      2  C   UNL d   1       1.514  -0.240   1.410  0.00  0.00     0.016 C 
ATOM      3  C   UNL d   1       0.355  -0.903   1.860  0.00  0.00    -0.003 A 
ATOM      4  C   UNL d   1       0.319  -1.642   3.085  0.00  0.00     0.078 A 
ATOM      5  C   UNL d   1      -0.930  -2.171   3.527  0.00  0.00     0.170 A 
ATOM      6  C   UNL d   1      -2.116  -1.863   2.846  0.00  0.00     0.159 A 
ATOM      7  C   UNL d   1      -2.068  -1.162   1.657  0.00  0.00     0.057 A 
ATOM      8  C   UNL d   1      -0.856  -0.726   1.100  0.00  0.00     0.008 A 
ATOM      9  C   UNL d   1       1.439  -1.819   3.945  0.00  0.00     0.231 C 
ATOM     10  O   UNL d   1       1.225  -1.935   5.185  0.00  0.00    -0.283 OA
ATOM     11  C   UNL d   1       2.772  -1.981   3.549  0.00  0.00     0.165 C 
ATOM     12  C   UNL d   1       3.309  -1.685   2.299  0.00  0.00     0.056 C 
ENDROOT
BRANCH   8  13
ATOM     13  C   UNL d   1      -0.828  -0.074  -0.305  0.00  0.00     0.245 C 
ATOM     14  O   UNL d   1       0.220  -0.672  -1.071  0.00  0.00    -0.480 OA
ATOM     15  C   UNL d   1       0.037  -1.848  -1.806  0.00  0.00     0.132 A 
ATOM     16  C   UNL d   1      -1.262  -2.325  -2.086  0.00  0.00     0.040 A 
ATOM     17  C   UNL d   1       1.158  -2.539  -2.273  0.00  0.00     0.091 A 
ATOM     18  C   UNL d   1      -2.468  -1.543  -1.608  0.00  0.00     0.091 C 
ATOM     19  C   UNL d   1      -1.411  -3.545  -2.787  0.00  0.00     0.127 A 
ATOM     20  C   UNL d   1      -2.108  -0.106  -1.183  0.00  0.00     0.226 C 
ATOM     21  C   UNL d   1      -0.276  -4.227  -3.243  0.00  0.00     0.091 A 
ATOM     22  C   UNL d   1       1.006  -3.725  -2.992  0.00  0.00     0.124 A 
BRANCH  20  23
ATOM     23  O   UNL d   1      -3.221   0.529  -0.554  0.00  0.00    -0.453 OA
BRANCH  23  24
ATOM     24  C   UNL d   1      -3.320   1.911  -0.350  0.00  0.00     0.340 C 
ATOM     25  O   UNL d   1      -2.472   2.690  -0.866  0.00  0.00    -0.245 OA
BRANCH  24  26
ATOM     26  C   UNL d   1      -4.425   2.452   0.472  0.00  0.00     0.066 A 
ATOM     27  C   UNL d   1      -5.338   1.583   1.088  0.00  0.00     0.064 A 
ATOM     28  C   UNL d   1      -6.381   2.088   1.875  0.00  0.00     0.163 A 
ATOM     29  C   UNL d   1      -6.527   3.470   2.055  0.00  0.00     0.201 A 
ATOM     30  C   UNL d   1      -5.610   4.354   1.438  0.00  0.00     0.163 A 
ATOM     31  C   UNL d   1      -4.571   3.837   0.655  0.00  0.00     0.064 A 
BRANCH  28  32
ATOM     32  O   UNL d   1      -7.282   1.216   2.485  0.00  0.00    -0.503 OA
ATOM     33  H   UNL d   1      -7.205   0.211   2.377  0.00  0.00     0.292 HD
ENDBRANCH  28  32
BRANCH  29  34
ATOM     34  O   UNL d   1      -7.585   3.920   2.849  0.00  0.00    -0.501 OA
ATOM     35  H   UNL d   1      -7.775   4.893   3.040  0.00  0.00     0.292 HD
ENDBRANCH  29  34
BRANCH  30  36
ATOM     36  O   UNL d   1      -5.693   5.742   1.573  0.00  0.00    -0.503 OA
ATOM     37  H   UNL d   1      -6.401   6.216   2.114  0.00  0.00     0.292 HD
ENDBRANCH  30  36
ENDBRANCH  24  26
ENDBRANCH  23  24
ENDBRANCH  20  23
BRANCH  19  38
ATOM     38  O   UNL d   1      -2.663  -4.108  -3.040  0.00  0.00    -0.506 OA
ATOM     39  H   UNL d   1      -3.529  -3.711  -2.699  0.00  0.00     0.292 HD
ENDBRANCH  19  38
BRANCH  22  40
ATOM     40  O   UNL d   1       2.135  -4.401  -3.448  0.00  0.00    -0.506 OA
ATOM     41  H   UNL d   1       2.060  -5.266  -3.971  0.00  0.00     0.292 HD
ENDBRANCH  22  40
ENDBRANCH   8  13
BRANCH   6  42
ATOM     42  O   UNL d   1      -3.375  -2.238   3.324  0.00  0.00    -0.503 OA
ATOM     43  H   UNL d   1      -3.541  -2.618   4.245  0.00  0.00     0.292 HD
ENDBRANCH   6  42
BRANCH   5  44
ATOM     44  O   UNL d   1      -0.962  -3.042   4.624  0.00  0.00    -0.503 OA
ATOM     45  H   UNL d   1      -1.770  -3.580   4.901  0.00  0.00     0.292 HD
ENDBRANCH   5  44
BRANCH   1  46
ATOM     46  C   UNL d   1       3.780  -0.238   0.334  0.00  0.00     0.232 C 
ATOM     47  O   UNL d   1       3.100   0.072  -0.882  0.00  0.00    -0.481 OA
ATOM     48  C   UNL d   1       3.672   0.872  -1.875  0.00  0.00     0.132 A 
ATOM     49  C   UNL d   1       3.041   0.958  -3.119  0.00  0.00     0.091 A 
ATOM     50  C   UNL d   1       4.856   1.599  -1.623  0.00  0.00     0.038 A 
ATOM     51  C   UNL d   1       3.593   1.737  -4.136  0.00  0.00     0.124 A 
ATOM     52  C   UNL d   1       4.789   2.429  -3.911  0.00  0.00     0.091 A 
ATOM     53  C   UNL d   1       5.434   2.355  -2.671  0.00  0.00     0.127 A 
ATOM     54  C   UNL d   1       5.509   1.517  -0.256  0.00  0.00     0.078 C 
ATOM     55  C   UNL d   1       4.555   0.996   0.841  0.00  0.00     0.164 C 
BRANCH  51  56
ATOM     56  O   UNL d   1       2.950   1.812  -5.369  0.00  0.00    -0.506 OA
ATOM     57  H   UNL d   1       3.325   2.368  -6.130  0.00  0.00     0.292 HD
ENDBRANCH  51  56
BRANCH  53  58
ATOM     58  O   UNL d   1       6.645   3.033  -2.519  0.00  0.00    -0.506 OA
ATOM     59  H   UNL d   1       7.213   2.976  -1.684  0.00  0.00     0.292 HD
ENDBRANCH  53  58
BRANCH  55  60
ATOM     60  O   UNL d   1       3.686   2.014   1.278  0.00  0.00    -0.388 OA
ATOM     61  H   UNL d   1       3.175   2.341   0.493  0.00  0.00     0.210 HD
ENDBRANCH  55  60
ENDBRANCH   1  46
BRANCH  11  62
ATOM     62  O   UNL d   1       3.646  -2.507   4.506  0.00  0.00    -0.503 OA
ATOM     63  H   UNL d   1       4.631  -2.659   4.322  0.00  0.00     0.292 HD
ENDBRANCH  11  62
TORSDOF 16
