MODEL 1
REMARK VINA RESULT:      -9.5      0.000      0.000
REMARK  16 active torsions:
REMARK  status: ('A' for Active; 'I' for Inactive)
REMARK    1  A    between atoms: O_1  and  C_2 
REMARK    2  A    between atoms: C_5  and  O_6 
REMARK    3  A    between atoms: C_8  and  O_9 
REMARK    4  A    between atoms: C_13  and  C_14 
REMARK    5  A    between atoms: C_18  and  O_19 
REMARK    6  A    between atoms: C_20  and  O_21 
REMARK    7  A    between atoms: C_23  and  C_24 
REMARK    8  A    between atoms: C_29  and  O_30 
REMARK    9  A    between atoms: O_30  and  C_31 
REMARK   10  A    between atoms: C_31  and  C_33 
REMARK   11  A    between atoms: C_35  and  O_36 
REMARK   12  A    between atoms: C_37  and  O_38 
REMARK   13  A    between atoms: C_39  and  O_40 
REMARK   14  A    between atoms: C_42  and  O_43 
REMARK   15  A    between atoms: C_45  and  O_46 
REMARK   16  A    between atoms: C_50  and  O_51 
ROOT
ATOM      1  C   UNL d   1       9.988  -2.236  17.837  0.00  0.00    -0.001 C 
ATOM      2  C   UNL d   1       9.594  -2.860  19.023  0.00  0.00     0.016 C 
ATOM      3  C   UNL d   1       9.255  -2.216  20.229  0.00  0.00    -0.003 A 
ATOM      4  C   UNL d   1       8.383  -1.083  20.277  0.00  0.00     0.078 A 
ATOM      5  C   UNL d   1       7.992  -0.575  21.551  0.00  0.00     0.170 A 
ATOM      6  C   UNL d   1       8.348  -1.249  22.727  0.00  0.00     0.159 A 
ATOM      7  C   UNL d   1       9.203  -2.332  22.671  0.00  0.00     0.057 A 
ATOM      8  C   UNL d   1       9.728  -2.802  21.457  0.00  0.00     0.008 A 
ATOM      9  C   UNL d   1       7.805  -0.470  19.129  0.00  0.00     0.231 C 
ATOM     10  O   UNL d   1       6.672   0.075  19.252  0.00  0.00    -0.283 OA
ATOM     11  C   UNL d   1       8.412  -0.315  17.877  0.00  0.00     0.165 C 
ATOM     12  C   UNL d   1       9.535  -0.991  17.409  0.00  0.00     0.056 C 
ENDROOT
BRANCH   8  13
ATOM     13  C   UNL d   1      10.797  -3.923  21.447  0.00  0.00     0.245 C 
ATOM     14  O   UNL d   1      12.093  -3.324  21.384  0.00  0.00    -0.480 OA
ATOM     15  C   UNL d   1      12.785  -2.908  22.527  0.00  0.00     0.132 A 
ATOM     16  C   UNL d   1      12.384  -3.344  23.808  0.00  0.00     0.040 A 
ATOM     17  C   UNL d   1      13.890  -2.065  22.383  0.00  0.00     0.091 A 
ATOM     18  C   UNL d   1      11.209  -4.291  23.945  0.00  0.00     0.091 C 
ATOM     19  C   UNL d   1      13.073  -2.863  24.946  0.00  0.00     0.127 A 
ATOM     20  C   UNL d   1      10.828  -4.954  22.607  0.00  0.00     0.226 C 
ATOM     21  C   UNL d   1      14.175  -2.014  24.783  0.00  0.00     0.091 A 
ATOM     22  C   UNL d   1      14.587  -1.618  23.506  0.00  0.00     0.124 A 
BRANCH  20  23
ATOM     23  O   UNL d   1       9.603  -5.677  22.732  0.00  0.00    -0.453 OA
BRANCH  23  24
ATOM     24  C   UNL d   1       9.198  -6.332  23.901  0.00  0.00     0.340 C 
ATOM     25  O   UNL d   1       9.879  -7.291  24.358  0.00  0.00    -0.245 OA
BRANCH  24  26
ATOM     26  C   UNL d   1       7.968  -5.893  24.597  0.00  0.00     0.066 A 
ATOM     27  C   UNL d   1       6.989  -6.831  24.961  0.00  0.00     0.064 A 
ATOM     28  C   UNL d   1       5.827  -6.423  25.628  0.00  0.00     0.163 A 
ATOM     29  C   UNL d   1       5.626  -5.072  25.939  0.00  0.00     0.201 A 
ATOM     30  C   UNL d   1       6.608  -4.120  25.577  0.00  0.00     0.163 A 
ATOM     31  C   UNL d   1       7.766  -4.539  24.912  0.00  0.00     0.064 A 
BRANCH  28  32
ATOM     32  O   UNL d   1       4.861  -7.363  25.987  0.00  0.00    -0.503 OA
ATOM     33  H   UNL d   1       5.068  -8.119  26.630  0.00  0.00     0.292 HD
ENDBRANCH  28  32
BRANCH  29  34
ATOM     34  O   UNL d   1       4.449  -4.720  26.605  0.00  0.00    -0.501 OA
ATOM     35  H   UNL d   1       3.528  -5.026  26.326  0.00  0.00     0.292 HD
ENDBRANCH  29  34
BRANCH  30  36
ATOM     36  O   UNL d   1       6.476  -2.757  25.855  0.00  0.00    -0.503 OA
ATOM     37  H   UNL d   1       7.250  -2.147  26.074  0.00  0.00     0.292 HD
ENDBRANCH  30  36
ENDBRANCH  24  26
ENDBRANCH  23  24
ENDBRANCH  20  23
BRANCH  19  38
ATOM     38  O   UNL d   1      12.688  -3.200  26.245  0.00  0.00    -0.506 OA
ATOM     39  H   UNL d   1      12.780  -4.133  26.626  0.00  0.00     0.292 HD
ENDBRANCH  19  38
BRANCH  22  40
ATOM     40  O   UNL d   1      15.684  -0.777  23.343  0.00  0.00    -0.506 OA
ATOM     41  H   UNL d   1      16.481  -1.047  22.777  0.00  0.00     0.292 HD
ENDBRANCH  22  40
ENDBRANCH   8  13
BRANCH   6  42
ATOM     42  O   UNL d   1       7.867  -0.870  23.984  0.00  0.00    -0.503 OA
ATOM     43  H   UNL d   1       7.786  -1.498  24.772  0.00  0.00     0.292 HD
ENDBRANCH   6  42
BRANCH   5  44
ATOM     44  O   UNL d   1       7.285   0.633  21.626  0.00  0.00    -0.503 OA
ATOM     45  H   UNL d   1       6.656   0.970  20.913  0.00  0.00     0.292 HD
ENDBRANCH   5  44
BRANCH   1  46
ATOM     46  C   UNL d   1      10.898  -3.002  16.885  0.00  0.00     0.232 C 
ATOM     47  O   UNL d   1      11.885  -2.139  16.321  0.00  0.00    -0.481 OA
ATOM     48  C   UNL d   1      13.033  -2.628  15.691  0.00  0.00     0.132 A 
ATOM     49  C   UNL d   1      13.843  -1.738  14.980  0.00  0.00     0.091 A 
ATOM     50  C   UNL d   1      13.383  -3.993  15.785  0.00  0.00     0.038 A 
ATOM     51  C   UNL d   1      14.989  -2.196  14.329  0.00  0.00     0.124 A 
ATOM     52  C   UNL d   1      15.323  -3.555  14.381  0.00  0.00     0.091 A 
ATOM     53  C   UNL d   1      14.523  -4.459  15.089  0.00  0.00     0.127 A 
ATOM     54  C   UNL d   1      12.507  -4.937  16.588  0.00  0.00     0.078 C 
ATOM     55  C   UNL d   1      11.574  -4.204  17.577  0.00  0.00     0.164 C 
BRANCH  51  56
ATOM     56  O   UNL d   1      15.785  -1.295  13.626  0.00  0.00    -0.506 OA
ATOM     57  H   UNL d   1      16.460  -0.704  14.098  0.00  0.00     0.292 HD
ENDBRANCH  51  56
BRANCH  53  58
ATOM     58  O   UNL d   1      14.884  -5.808  15.070  0.00  0.00    -0.506 OA
ATOM     59  H   UNL d   1      14.986  -6.367  15.907  0.00  0.00     0.292 HD
ENDBRANCH  53  58
BRANCH  55  60
ATOM     60  O   UNL d   1      12.274  -3.814  18.734  0.00  0.00    -0.388 OA
ATOM     61  H   UNL d   1      11.978  -4.392  19.484  0.00  0.00     0.210 HD
ENDBRANCH  55  60
ENDBRANCH   1  46
BRANCH  11  62
ATOM     62  O   UNL d   1       7.836   0.627  17.019  0.00  0.00    -0.503 OA
ATOM     63  H   UNL d   1       8.242   0.871  16.123  0.00  0.00     0.292 HD
ENDBRANCH  11  62
TORSDOF 16
ENDMDL
MODEL 2
REMARK VINA RESULT:      -9.1      3.720      7.374
REMARK  16 active torsions:
REMARK  status: ('A' for Active; 'I' for Inactive)
REMARK    1  A    between atoms: O_1  and  C_2 
REMARK    2  A    between atoms: C_5  and  O_6 
REMARK    3  A    between atoms: C_8  and  O_9 
REMARK    4  A    between atoms: C_13  and  C_14 
REMARK    5  A    between atoms: C_18  and  O_19 
REMARK    6  A    between atoms: C_20  and  O_21 
REMARK    7  A    between atoms: C_23  and  C_24 
REMARK    8  A    between atoms: C_29  and  O_30 
REMARK    9  A    between atoms: O_30  and  C_31 
REMARK   10  A    between atoms: C_31  and  C_33 
REMARK   11  A    between atoms: C_35  and  O_36 
REMARK   12  A    between atoms: C_37  and  O_38 
REMARK   13  A    between atoms: C_39  and  O_40 
REMARK   14  A    between atoms: C_42  and  O_43 
REMARK   15  A    between atoms: C_45  and  O_46 
REMARK   16  A    between atoms: C_50  and  O_51 
ROOT
ATOM      1  C   UNL d   1      11.635  -2.148  21.342  0.00  0.00    -0.001 C 
ATOM      2  C   UNL d   1      10.942  -0.941  21.469  0.00  0.00     0.016 C 
ATOM      3  C   UNL d   1      10.497  -0.123  20.412  0.00  0.00    -0.003 A 
ATOM      4  C   UNL d   1       9.816  -0.648  19.268  0.00  0.00     0.078 A 
ATOM      5  C   UNL d   1       9.286   0.267  18.309  0.00  0.00     0.170 A 
ATOM      6  C   UNL d   1       9.317   1.648  18.548  0.00  0.00     0.159 A 
ATOM      7  C   UNL d   1       9.989   2.144  19.648  0.00  0.00     0.057 A 
ATOM      8  C   UNL d   1      10.645   1.303  20.560  0.00  0.00     0.008 A 
ATOM      9  C   UNL d   1       9.556  -2.031  19.057  0.00  0.00     0.231 C 
ATOM     10  O   UNL d   1       8.517  -2.350  18.413  0.00  0.00    -0.283 OA
ATOM     11  C   UNL d   1      10.394  -3.096  19.408  0.00  0.00     0.165 C 
ATOM     12  C   UNL d   1      11.464  -3.052  20.298  0.00  0.00     0.056 C 
ENDROOT
BRANCH   8  13
ATOM     13  C   UNL d   1      11.512   1.901  21.695  0.00  0.00     0.245 C 
ATOM     14  O   UNL d   1      12.396   2.875  21.137  0.00  0.00    -0.480 OA
ATOM     15  C   UNL d   1      12.022   4.210  20.949  0.00  0.00     0.132 A 
ATOM     16  C   UNL d   1      10.877   4.732  21.589  0.00  0.00     0.040 A 
ATOM     17  C   UNL d   1      12.805   5.027  20.130  0.00  0.00     0.091 A 
ATOM     18  C   UNL d   1      10.061   3.845  22.507  0.00  0.00     0.091 C 
ATOM     19  C   UNL d   1      10.497   6.071  21.337  0.00  0.00     0.127 A 
ATOM     20  C   UNL d   1      10.815   2.564  22.914  0.00  0.00     0.226 C 
ATOM     21  C   UNL d   1      11.291   6.873  20.508  0.00  0.00     0.091 A 
ATOM     22  C   UNL d   1      12.445   6.356  19.909  0.00  0.00     0.124 A 
BRANCH  20  23
ATOM     23  O   UNL d   1       9.949   1.666  23.607  0.00  0.00    -0.453 OA
BRANCH  23  24
ATOM     24  C   UNL d   1       8.605   1.462  23.273  0.00  0.00     0.340 C 
ATOM     25  O   UNL d   1       8.032   2.230  22.452  0.00  0.00    -0.245 OA
BRANCH  24  26
ATOM     26  C   UNL d   1       7.860   0.340  23.887  0.00  0.00     0.066 A 
ATOM     27  C   UNL d   1       8.094  -0.977  23.467  0.00  0.00     0.064 A 
ATOM     28  C   UNL d   1       7.400  -2.045  24.050  0.00  0.00     0.163 A 
ATOM     29  C   UNL d   1       6.459  -1.809  25.061  0.00  0.00     0.201 A 
ATOM     30  C   UNL d   1       6.217  -0.483  25.493  0.00  0.00     0.163 A 
ATOM     31  C   UNL d   1       6.918   0.575  24.903  0.00  0.00     0.064 A 
BRANCH  28  32
ATOM     32  O   UNL d   1       7.641  -3.351  23.627  0.00  0.00    -0.503 OA
ATOM     33  H   UNL d   1       8.496  -3.839  23.869  0.00  0.00     0.292 HD
ENDBRANCH  28  32
BRANCH  29  34
ATOM     34  O   UNL d   1       5.794  -2.909  25.609  0.00  0.00    -0.501 OA
ATOM     35  H   UNL d   1       5.106  -2.846  26.345  0.00  0.00     0.292 HD
ENDBRANCH  29  34
BRANCH  30  36
ATOM     36  O   UNL d   1       5.295  -0.172  26.495  0.00  0.00    -0.503 OA
ATOM     37  H   UNL d   1       5.199  -0.690  27.356  0.00  0.00     0.292 HD
ENDBRANCH  30  36
ENDBRANCH  24  26
ENDBRANCH  23  24
ENDBRANCH  20  23
BRANCH  19  38
ATOM     38  O   UNL d   1       9.341   6.631  21.883  0.00  0.00    -0.506 OA
ATOM     39  H   UNL d   1       9.328   7.524  22.359  0.00  0.00     0.292 HD
ENDBRANCH  19  38
BRANCH  22  40
ATOM     40  O   UNL d   1      13.238   7.155  19.087  0.00  0.00    -0.506 OA
ATOM     41  H   UNL d   1      12.885   7.532  18.215  0.00  0.00     0.292 HD
ENDBRANCH  22  40
ENDBRANCH   8  13
BRANCH   6  42
ATOM     42  O   UNL d   1       8.683   2.569  17.709  0.00  0.00    -0.503 OA
ATOM     43  H   UNL d   1       7.991   3.235  18.021  0.00  0.00     0.292 HD
ENDBRANCH   6  42
BRANCH   5  44
ATOM     44  O   UNL d   1       8.773  -0.221  17.100  0.00  0.00    -0.503 OA
ATOM     45  H   UNL d   1       8.505   0.361  16.319  0.00  0.00     0.292 HD
ENDBRANCH   5  44
BRANCH   1  46
ATOM     46  C   UNL d   1      12.572  -2.565  22.469  0.00  0.00     0.232 C 
ATOM     47  O   UNL d   1      12.983  -1.433  23.234  0.00  0.00    -0.481 OA
ATOM     48  C   UNL d   1      13.559  -1.556  24.501  0.00  0.00     0.132 A 
ATOM     49  C   UNL d   1      14.127  -0.427  25.097  0.00  0.00     0.091 A 
ATOM     50  C   UNL d   1      13.550  -2.794  25.180  0.00  0.00     0.038 A 
ATOM     51  C   UNL d   1      14.722  -0.520  26.355  0.00  0.00     0.124 A 
ATOM     52  C   UNL d   1      14.757  -1.751  27.020  0.00  0.00     0.091 A 
ATOM     53  C   UNL d   1      14.191  -2.892  26.438  0.00  0.00     0.127 A 
ATOM     54  C   UNL d   1      12.901  -4.001  24.530  0.00  0.00     0.078 C 
ATOM     55  C   UNL d   1      11.931  -3.626  23.388  0.00  0.00     0.164 C 
BRANCH  51  56
ATOM     56  O   UNL d   1      15.282   0.616  26.935  0.00  0.00    -0.506 OA
ATOM     57  H   UNL d   1      15.020   1.549  26.635  0.00  0.00     0.292 HD
ENDBRANCH  51  56
BRANCH  53  58
ATOM     58  O   UNL d   1      14.293  -4.101  27.130  0.00  0.00    -0.506 OA
ATOM     59  H   UNL d   1      14.114  -4.191  28.121  0.00  0.00     0.292 HD
ENDBRANCH  53  58
BRANCH  55  60
ATOM     60  O   UNL d   1      10.693  -3.192  23.901  0.00  0.00    -0.388 OA
ATOM     61  H   UNL d   1      10.854  -2.788  24.793  0.00  0.00     0.210 HD
ENDBRANCH  55  60
ENDBRANCH   1  46
BRANCH  11  62
ATOM     62  O   UNL d   1      10.134  -4.323  18.789  0.00  0.00    -0.503 OA
ATOM     63  H   UNL d   1      10.600  -4.615  17.937  0.00  0.00     0.292 HD
ENDBRANCH  11  62
TORSDOF 16
ENDMDL
MODEL 3
REMARK VINA RESULT:      -9.1      1.389      1.771
REMARK  16 active torsions:
REMARK  status: ('A' for Active; 'I' for Inactive)
REMARK    1  A    between atoms: O_1  and  C_2 
REMARK    2  A    between atoms: C_5  and  O_6 
REMARK    3  A    between atoms: C_8  and  O_9 
REMARK    4  A    between atoms: C_13  and  C_14 
REMARK    5  A    between atoms: C_18  and  O_19 
REMARK    6  A    between atoms: C_20  and  O_21 
REMARK    7  A    between atoms: C_23  and  C_24 
REMARK    8  A    between atoms: C_29  and  O_30 
REMARK    9  A    between atoms: O_30  and  C_31 
REMARK   10  A    between atoms: C_31  and  C_33 
REMARK   11  A    between atoms: C_35  and  O_36 
REMARK   12  A    between atoms: C_37  and  O_38 
REMARK   13  A    between atoms: C_39  and  O_40 
REMARK   14  A    between atoms: C_42  and  O_43 
REMARK   15  A    between atoms: C_45  and  O_46 
REMARK   16  A    between atoms: C_50  and  O_51 
ROOT
ATOM      1  C   UNL d   1      10.374  -2.962  17.795  0.00  0.00    -0.001 C 
ATOM      2  C   UNL d   1       9.939  -3.453  19.028  0.00  0.00     0.016 C 
ATOM      3  C   UNL d   1       9.548  -2.681  20.140  0.00  0.00    -0.003 A 
ATOM      4  C   UNL d   1       8.665  -1.561  20.026  0.00  0.00     0.078 A 
ATOM      5  C   UNL d   1       8.220  -0.917  21.218  0.00  0.00     0.170 A 
ATOM      6  C   UNL d   1       8.535  -1.450  22.476  0.00  0.00     0.159 A 
ATOM      7  C   UNL d   1       9.400  -2.522  22.576  0.00  0.00     0.057 A 
ATOM      8  C   UNL d   1       9.977  -3.119  21.444  0.00  0.00     0.008 A 
ATOM      9  C   UNL d   1       8.128  -1.088  18.795  0.00  0.00     0.231 C 
ATOM     10  O   UNL d   1       6.986  -0.548  18.812  0.00  0.00    -0.283 OA
ATOM     11  C   UNL d   1       8.782  -1.068  17.558  0.00  0.00     0.165 C 
ATOM     12  C   UNL d   1       9.929  -1.779  17.212  0.00  0.00     0.056 C 
ENDROOT
BRANCH   8  13
ATOM     13  C   UNL d   1      11.054  -4.220  21.601  0.00  0.00     0.245 C 
ATOM     14  O   UNL d   1      12.346  -3.628  21.448  0.00  0.00    -0.480 OA
ATOM     15  C   UNL d   1      13.034  -3.039  22.514  0.00  0.00     0.132 A 
ATOM     16  C   UNL d   1      12.636  -3.280  23.847  0.00  0.00     0.040 A 
ATOM     17  C   UNL d   1      14.132  -2.218  22.243  0.00  0.00     0.091 A 
ATOM     18  C   UNL d   1      11.469  -4.204  24.126  0.00  0.00     0.091 C 
ATOM     19  C   UNL d   1      13.322  -2.627  24.898  0.00  0.00     0.127 A 
ATOM     20  C   UNL d   1      11.093  -5.065  22.904  0.00  0.00     0.226 C 
ATOM     21  C   UNL d   1      14.417  -1.804  24.608  0.00  0.00     0.091 A 
ATOM     22  C   UNL d   1      14.826  -1.602  23.285  0.00  0.00     0.124 A 
BRANCH  20  23
ATOM     23  O   UNL d   1       9.874  -5.769  23.137  0.00  0.00    -0.453 OA
BRANCH  23  24
ATOM     24  C   UNL d   1       9.456  -6.211  24.399  0.00  0.00     0.340 C 
ATOM     25  O   UNL d   1      10.202  -6.961  25.087  0.00  0.00    -0.245 OA
BRANCH  24  26
ATOM     26  C   UNL d   1       8.136  -5.793  24.920  0.00  0.00     0.066 A 
ATOM     27  C   UNL d   1       7.158  -6.753  25.219  0.00  0.00     0.064 A 
ATOM     28  C   UNL d   1       5.909  -6.365  25.722  0.00  0.00     0.163 A 
ATOM     29  C   UNL d   1       5.620  -5.009  25.929  0.00  0.00     0.201 A 
ATOM     30  C   UNL d   1       6.601  -4.034  25.631  0.00  0.00     0.163 A 
ATOM     31  C   UNL d   1       7.846  -4.435  25.130  0.00  0.00     0.064 A 
BRANCH  28  32
ATOM     32  O   UNL d   1       4.945  -7.327  26.018  0.00  0.00    -0.503 OA
ATOM     33  H   UNL d   1       4.236  -7.594  25.345  0.00  0.00     0.292 HD
ENDBRANCH  28  32
BRANCH  29  34
ATOM     34  O   UNL d   1       4.359  -4.677  26.431  0.00  0.00    -0.501 OA
ATOM     35  H   UNL d   1       3.918  -3.778  26.303  0.00  0.00     0.292 HD
ENDBRANCH  29  34
BRANCH  30  36
ATOM     36  O   UNL d   1       6.384  -2.666  25.812  0.00  0.00    -0.503 OA
ATOM     37  H   UNL d   1       6.757  -1.949  25.208  0.00  0.00     0.292 HD
ENDBRANCH  30  36
ENDBRANCH  24  26
ENDBRANCH  23  24
ENDBRANCH  20  23
BRANCH  19  38
ATOM     38  O   UNL d   1      12.940  -2.768  26.234  0.00  0.00    -0.506 OA
ATOM     39  H   UNL d   1      12.512  -3.608  26.603  0.00  0.00     0.292 HD
ENDBRANCH  19  38
BRANCH  22  40
ATOM     40  O   UNL d   1      15.917  -0.786  22.996  0.00  0.00    -0.506 OA
ATOM     41  H   UNL d   1      16.869  -1.103  23.141  0.00  0.00     0.292 HD
ENDBRANCH  22  40
ENDBRANCH   8  13
BRANCH   6  42
ATOM     42  O   UNL d   1       8.002  -0.938  23.663  0.00  0.00    -0.503 OA
ATOM     43  H   UNL d   1       7.061  -0.583  23.754  0.00  0.00     0.292 HD
ENDBRANCH   6  42
BRANCH   5  44
ATOM     44  O   UNL d   1       7.500   0.282  21.130  0.00  0.00    -0.503 OA
ATOM     45  H   UNL d   1       7.781   1.148  21.565  0.00  0.00     0.292 HD
ENDBRANCH   5  44
BRANCH   1  46
ATOM     46  C   UNL d   1      11.328  -3.819  16.972  0.00  0.00     0.232 C 
ATOM     47  O   UNL d   1      10.752  -4.150  15.709  0.00  0.00    -0.481 OA
ATOM     48  C   UNL d   1      11.517  -4.631  14.642  0.00  0.00     0.132 A 
ATOM     49  C   UNL d   1      10.861  -5.132  13.514  0.00  0.00     0.091 A 
ATOM     50  C   UNL d   1      12.927  -4.594  14.691  0.00  0.00     0.038 A 
ATOM     51  C   UNL d   1      11.594  -5.632  12.438  0.00  0.00     0.124 A 
ATOM     52  C   UNL d   1      12.993  -5.639  12.492  0.00  0.00     0.091 A 
ATOM     53  C   UNL d   1      13.666  -5.140  13.614  0.00  0.00     0.127 A 
ATOM     54  C   UNL d   1      13.620  -4.017  15.911  0.00  0.00     0.078 C 
ATOM     55  C   UNL d   1      12.694  -3.129  16.771  0.00  0.00     0.164 C 
BRANCH  51  56
ATOM     56  O   UNL d   1      10.925  -6.127  11.321  0.00  0.00    -0.506 OA
ATOM     57  H   UNL d   1       9.991  -5.812  11.080  0.00  0.00     0.292 HD
ENDBRANCH  51  56
BRANCH  53  58
ATOM     58  O   UNL d   1      15.061  -5.211  13.628  0.00  0.00    -0.506 OA
ATOM     59  H   UNL d   1      15.629  -5.148  12.794  0.00  0.00     0.292 HD
ENDBRANCH  53  58
BRANCH  55  60
ATOM     60  O   UNL d   1      12.553  -1.849  16.202  0.00  0.00    -0.388 OA
ATOM     61  H   UNL d   1      13.114  -1.812  15.385  0.00  0.00     0.210 HD
ENDBRANCH  55  60
ENDBRANCH   1  46
BRANCH  11  62
ATOM     62  O   UNL d   1       8.233  -0.236  16.577  0.00  0.00    -0.503 OA
ATOM     63  H   UNL d   1       8.174   0.770  16.683  0.00  0.00     0.292 HD
ENDBRANCH  11  62
TORSDOF 16
ENDMDL
