Malvidin 3-O-(6''-p-coumaroyl-glucoside)
     RDKit          3D

 77 81  0  0  0  0  0  0  0  0999 V2000
   -8.5707    2.4264   -1.3268 C   0  0  0  0  0  0  0  0  0  0  0  0
   -7.8588    1.6279   -2.2668 O   0  0  0  0  0  0  0  0  0  0  0  0
   -6.6139    1.0272   -2.0200 C   0  0  0  0  0  0  0  0  0  0  0  0
   -5.9459    1.1689   -0.7904 C   0  0  0  0  0  0  0  0  0  0  0  0
   -4.6987    0.5642   -0.5782 C   0  0  0  0  0  0  0  0  0  0  0  0
   -4.1332   -0.2172   -1.5999 C   0  0  0  0  0  0  0  0  0  0  0  0
   -4.7859   -0.3614   -2.8386 C   0  0  0  0  0  0  0  0  0  0  0  0
   -4.2342   -1.1189   -3.8846 O   0  0  0  0  0  0  0  0  0  0  0  0
   -2.9501   -1.7327   -3.8492 C   0  0  0  0  0  0  0  0  0  0  0  0
   -6.0286    0.2653   -3.0402 C   0  0  0  0  0  0  0  0  0  0  0  0
   -6.7015    0.1388   -4.2566 O   0  0  0  0  0  0  0  0  0  0  0  0
   -4.0348    0.7176    0.7390 C   0  0  0  0  0  0  0  0  0  0  0  0
   -4.7952    0.6746    1.8293 O   0  0  0  0  0  3  0  0  0  0  0  0
   -4.3155    0.7978    3.0611 C   0  0  0  0  0  0  0  0  0  0  0  0
   -2.9314    0.9897    3.2793 C   0  0  0  0  0  0  0  0  0  0  0  0
   -2.1016    1.0600    2.1488 C   0  0  0  0  0  0  0  0  0  0  0  0
   -2.6466    0.9268    0.8602 C   0  0  0  0  0  0  0  0  0  0  0  0
   -1.8570    1.0237   -0.2989 O   0  0  0  0  0  0  0  0  0  0  0  0
   -0.4356    1.1505   -0.3278 C   0  0  0  0  0  0  0  0  0  0  0  0
    0.1360    0.0195    0.3235 O   0  0  0  0  0  0  0  0  0  0  0  0
    1.5278   -0.0496    0.0801 C   0  0  0  0  0  0  0  0  0  0  0  0
    2.1793   -0.9590    1.1284 C   0  0  0  0  0  0  0  0  0  0  0  0
    3.5784   -1.0596    0.8812 O   0  0  0  0  0  0  0  0  0  0  0  0
    4.4360   -1.8242    1.6788 C   0  0  0  0  0  0  0  0  0  0  0  0
    3.9895   -2.4481    2.6794 O   0  0  0  0  0  0  0  0  0  0  0  0
    5.8696   -1.9098    1.3607 C   0  0  0  0  0  0  0  0  0  0  0  0
    6.3937   -1.2969    0.2904 C   0  0  0  0  0  0  0  0  0  0  0  0
    7.8291   -1.3654   -0.0790 C   0  0  0  0  0  0  0  0  0  0  0  0
    8.1975   -1.0694   -1.4026 C   0  0  0  0  0  0  0  0  0  0  0  0
    9.5387   -1.1118   -1.7945 C   0  0  0  0  0  0  0  0  0  0  0  0
   10.5324   -1.4393   -0.8685 C   0  0  0  0  0  0  0  0  0  0  0  0
   11.8647   -1.4781   -1.2732 O   0  0  0  0  0  0  0  0  0  0  0  0
   10.1796   -1.7211    0.4570 C   0  0  0  0  0  0  0  0  0  0  0  0
    8.8390   -1.6807    0.8532 C   0  0  0  0  0  0  0  0  0  0  0  0
    1.7783   -0.5111   -1.3862 C   0  0  0  0  0  0  0  0  0  0  0  0
    1.9360   -1.9060   -1.4917 O   0  0  0  0  0  0  0  0  0  0  0  0
    0.6244   -0.0343   -2.3103 C   0  0  0  0  0  0  0  0  0  0  0  0
    1.0357    0.0532   -3.6525 O   0  0  0  0  0  0  0  0  0  0  0  0
    0.0182    1.2942   -1.8119 C   0  0  0  0  0  0  0  0  0  0  0  0
    0.9674    2.3285   -1.9074 O   0  0  0  0  0  0  0  0  0  0  0  0
   -2.4503    1.1108    4.6098 C   0  0  0  0  0  0  0  0  0  0  0  0
   -1.0995    1.2893    4.9233 O   0  0  0  0  0  0  0  0  0  0  0  0
   -3.3551    1.0475    5.6768 C   0  0  0  0  0  0  0  0  0  0  0  0
   -4.7229    0.8610    5.4484 C   0  0  0  0  0  0  0  0  0  0  0  0
   -5.6184    0.7979    6.5138 O   0  0  0  0  0  0  0  0  0  0  0  0
   -5.1978    0.7356    4.1428 C   0  0  0  0  0  0  0  0  0  0  0  0
   -7.9692    3.3179   -1.0500 H   0  0  0  0  0  0  0  0  0  0  0  0
   -8.8096    1.8290   -0.4217 H   0  0  0  0  0  0  0  0  0  0  0  0
   -9.5202    2.7680   -1.7874 H   0  0  0  0  0  0  0  0  0  0  0  0
   -6.3858    1.7584    0.0032 H   0  0  0  0  0  0  0  0  0  0  0  0
   -3.2011   -0.7335   -1.4192 H   0  0  0  0  0  0  0  0  0  0  0  0
   -2.9061   -2.4853   -3.0340 H   0  0  0  0  0  0  0  0  0  0  0  0
   -2.7673   -2.2462   -4.8152 H   0  0  0  0  0  0  0  0  0  0  0  0
   -2.1661   -0.9607   -3.7043 H   0  0  0  0  0  0  0  0  0  0  0  0
   -6.3279   -0.3988   -5.0294 H   0  0  0  0  0  0  0  0  0  0  0  0
   -1.0454    1.2344    2.2514 H   0  0  0  0  0  0  0  0  0  0  0  0
   -0.1640    2.0762    0.2297 H   0  0  0  0  0  0  0  0  0  0  0  0
    1.9928    0.9565    0.2216 H   0  0  0  0  0  0  0  0  0  0  0  0
    1.7168   -1.9695    1.1100 H   0  0  0  0  0  0  0  0  0  0  0  0
    2.0147   -0.5220    2.1378 H   0  0  0  0  0  0  0  0  0  0  0  0
    6.4879   -2.5138    2.0104 H   0  0  0  0  0  0  0  0  0  0  0  0
    5.7353   -0.7508   -0.3757 H   0  0  0  0  0  0  0  0  0  0  0  0
    7.4440   -0.8129   -2.1376 H   0  0  0  0  0  0  0  0  0  0  0  0
    9.8060   -0.8884   -2.8196 H   0  0  0  0  0  0  0  0  0  0  0  0
   12.6083   -1.7111   -0.6253 H   0  0  0  0  0  0  0  0  0  0  0  0
   10.9444   -1.9646    1.1836 H   0  0  0  0  0  0  0  0  0  0  0  0
    8.6077   -1.8734    1.8913 H   0  0  0  0  0  0  0  0  0  0  0  0
    2.7313   -0.0433   -1.7179 H   0  0  0  0  0  0  0  0  0  0  0  0
    1.0977   -2.3295   -1.1694 H   0  0  0  0  0  0  0  0  0  0  0  0
   -0.1932   -0.7871   -2.2686 H   0  0  0  0  0  0  0  0  0  0  0  0
    1.8034    0.6800   -3.6981 H   0  0  0  0  0  0  0  0  0  0  0  0
   -0.8703    1.5396   -2.4433 H   0  0  0  0  0  0  0  0  0  0  0  0
    0.8738    2.7315   -2.8099 H   0  0  0  0  0  0  0  0  0  0  0  0
   -0.3535    1.3236    4.2441 H   0  0  0  0  0  0  0  0  0  0  0  0
   -2.9892    1.1416    6.6918 H   0  0  0  0  0  0  0  0  0  0  0  0
   -5.3066    0.8850    7.4740 H   0  0  0  0  0  0  0  0  0  0  0  0
   -6.2567    0.5898    3.9678 H   0  0  0  0  0  0  0  0  0  0  0  0
  1  2  1  0
  2  3  1  0
  3  4  2  0
  4  5  1  0
  5  6  2  0
  6  7  1  0
  7  8  1  0
  8  9  1  0
  7 10  2  0
 10 11  1  0
  5 12  1  0
 12 13  2  0
 13 14  1  0
 14 15  2  0
 15 16  1  0
 16 17  2  0
 17 18  1  0
 18 19  1  0
 19 20  1  0
 20 21  1  0
 21 22  1  0
 22 23  1  0
 23 24  1  0
 24 25  2  0
 24 26  1  0
 26 27  2  0
 27 28  1  0
 28 29  2  0
 29 30  1  0
 30 31  2  0
 31 32  1  0
 31 33  1  0
 33 34  2  0
 21 35  1  0
 35 36  1  0
 35 37  1  0
 37 38  1  0
 37 39  1  0
 39 40  1  0
 15 41  1  0
 41 42  1  0
 41 43  2  0
 43 44  1  0
 44 45  1  0
 44 46  2  0
 10  3  1  0
 17 12  1  0
 39 19  1  0
 46 14  1  0
 34 28  1  0
  1 47  1  0
  1 48  1  0
  1 49  1  0
  4 50  1  0
  6 51  1  0
  9 52  1  0
  9 53  1  0
  9 54  1  0
 11 55  1  0
 16 56  1  0
 19 57  1  0
 21 58  1  0
 22 59  1  0
 22 60  1  0
 26 61  1  0
 27 62  1  0
 29 63  1  0
 30 64  1  0
 32 65  1  0
 33 66  1  0
 34 67  1  0
 35 68  1  0
 36 69  1  0
 37 70  1  0
 38 71  1  0
 39 72  1  0
 40 73  1  0
 42 74  1  0
 43 75  1  0
 45 76  1  0
 46 77  1  0
M  CHG  1  13   1
M  END
>  <LIG_ID>  (1) 
0

>  <_smiles>  (1) 
COC1=CC(=CC(OC)=C1O)C1=[O+]C2=C(C=C1OC1OC(COC(=O)\C=C\C3=CC=C(O)C=C3)C(O)C(O)C1O)C(O)=CC(O)=C2

>  <_name>  (1) 
Malvidin 3-O-(6''-p-coumaroyl-glucoside)

>  <_molecular_weight>  (1) 
639.58

>  <_formula>  (1) 
C32H31O14

>  <_logP>  (1) 
2.6635000000000018

>  <_molecular_wt_calculated>  (1) 
639.5860000000015

>  <_havy_atom_count>  (1) 
46

>  <_hydrogen_acceptors>  (1) 
13

>  <_hydrogen_donors>  (1) 
7

>  <_rotatable_bonds>  (1) 
18

>  <_amide_bonds>  (1) 
0

>  <_ring_count>  (1) 
5

$$$$
Delphinidin 3-O-(6''-acetyl-galactoside)
     RDKit          3D

 59 62  0  0  0  0  0  0  0  0999 V2000
    3.5108    0.0939    3.5179 C   0  0  0  0  0  0  0  0  0  0  0  0
    3.1093    0.8999    2.3302 C   0  0  0  0  0  0  0  0  0  0  0  0
    1.9408    1.3693    2.2621 O   0  0  0  0  0  0  0  0  0  0  0  0
    4.0530    1.1722    1.3331 O   0  0  0  0  0  0  0  0  0  0  0  0
    3.7437    1.8498    0.1144 C   0  0  0  0  0  0  0  0  0  0  0  0
    3.1281    0.8945   -0.9222 C   0  0  0  0  0  0  0  0  0  0  0  0
    1.8933    0.4180   -0.4193 O   0  0  0  0  0  0  0  0  0  0  0  0
    1.1951   -0.3089   -1.4134 C   0  0  0  0  0  0  0  0  0  0  0  0
   -0.1015   -0.6392   -0.9193 O   0  0  0  0  0  0  0  0  0  0  0  0
   -1.0819    0.2899   -0.5292 C   0  0  0  0  0  0  0  0  0  0  0  0
   -0.9267    1.6714   -0.7328 C   0  0  0  0  0  0  0  0  0  0  0  0
   -1.9527    2.5591   -0.3704 C   0  0  0  0  0  0  0  0  0  0  0  0
   -1.8656    3.9655   -0.5449 C   0  0  0  0  0  0  0  0  0  0  0  0
   -0.7382    4.6042   -1.0700 O   0  0  0  0  0  0  0  0  0  0  0  0
   -2.9489    4.7727   -0.1762 C   0  0  0  0  0  0  0  0  0  0  0  0
   -4.1103    4.2121    0.3670 C   0  0  0  0  0  0  0  0  0  0  0  0
   -5.1846    5.0202    0.7327 O   0  0  0  0  0  0  0  0  0  0  0  0
   -4.1961    2.8314    0.5469 C   0  0  0  0  0  0  0  0  0  0  0  0
   -3.1298    2.0042    0.1848 C   0  0  0  0  0  0  0  0  0  0  0  0
   -3.2370    0.6938    0.3718 O   0  0  0  0  0  3  0  0  0  0  0  0
   -2.2748   -0.1694    0.0605 C   0  0  0  0  0  0  0  0  0  0  0  0
   -2.5044   -1.6044    0.3411 C   0  0  0  0  0  0  0  0  0  0  0  0
   -1.5077   -2.3988    0.9280 C   0  0  0  0  0  0  0  0  0  0  0  0
   -1.7440   -3.7524    1.1961 C   0  0  0  0  0  0  0  0  0  0  0  0
   -0.7428   -4.5381    1.7652 O   0  0  0  0  0  0  0  0  0  0  0  0
   -2.9883   -4.3259    0.8979 C   0  0  0  0  0  0  0  0  0  0  0  0
   -3.1698   -5.6823    1.1794 O   0  0  0  0  0  0  0  0  0  0  0  0
   -4.0079   -3.5236    0.3319 C   0  0  0  0  0  0  0  0  0  0  0  0
   -5.2748   -4.0220    0.0208 O   0  0  0  0  0  0  0  0  0  0  0  0
   -3.7560   -2.1724    0.0663 C   0  0  0  0  0  0  0  0  0  0  0  0
    1.9491   -1.6109   -1.7484 C   0  0  0  0  0  0  0  0  0  0  0  0
    1.9867   -2.4445   -0.6164 O   0  0  0  0  0  0  0  0  0  0  0  0
    3.3943   -1.3022   -2.1916 C   0  0  0  0  0  0  0  0  0  0  0  0
    3.4362   -0.8733   -3.5327 O   0  0  0  0  0  0  0  0  0  0  0  0
    4.0747   -0.2922   -1.2395 C   0  0  0  0  0  0  0  0  0  0  0  0
    5.2658    0.1698   -1.8264 O   0  0  0  0  0  0  0  0  0  0  0  0
    4.3657   -0.5644    3.2567 H   0  0  0  0  0  0  0  0  0  0  0  0
    3.8118    0.7736    4.3418 H   0  0  0  0  0  0  0  0  0  0  0  0
    2.6620   -0.5383    3.8541 H   0  0  0  0  0  0  0  0  0  0  0  0
    3.0519    2.6987    0.3091 H   0  0  0  0  0  0  0  0  0  0  0  0
    4.6792    2.2856   -0.2950 H   0  0  0  0  0  0  0  0  0  0  0  0
    2.9623    1.5024   -1.8417 H   0  0  0  0  0  0  0  0  0  0  0  0
    1.0621    0.2950   -2.3401 H   0  0  0  0  0  0  0  0  0  0  0  0
   -0.0204    2.0313   -1.1869 H   0  0  0  0  0  0  0  0  0  0  0  0
    0.1121    4.1331   -1.3422 H   0  0  0  0  0  0  0  0  0  0  0  0
   -2.8842    5.8453   -0.3112 H   0  0  0  0  0  0  0  0  0  0  0  0
   -5.1547    6.0263    0.6158 H   0  0  0  0  0  0  0  0  0  0  0  0
   -5.0947    2.3995    0.9701 H   0  0  0  0  0  0  0  0  0  0  0  0
   -0.5524   -1.9663    1.1982 H   0  0  0  0  0  0  0  0  0  0  0  0
    0.1685   -4.1560    1.9903 H   0  0  0  0  0  0  0  0  0  0  0  0
   -4.0234   -6.1892    0.9952 H   0  0  0  0  0  0  0  0  0  0  0  0
   -5.5618   -4.9769    0.1796 H   0  0  0  0  0  0  0  0  0  0  0  0
   -4.5408   -1.5659   -0.3705 H   0  0  0  0  0  0  0  0  0  0  0  0
    1.4271   -2.1324   -2.5857 H   0  0  0  0  0  0  0  0  0  0  0  0
    1.1388   -2.9608   -0.6063 H   0  0  0  0  0  0  0  0  0  0  0  0
    3.9746   -2.2503   -2.1454 H   0  0  0  0  0  0  0  0  0  0  0  0
    2.9656   -0.0044   -3.5995 H   0  0  0  0  0  0  0  0  0  0  0  0
    4.2974   -0.8372   -0.2902 H   0  0  0  0  0  0  0  0  0  0  0  0
    5.9161    0.3199   -1.0914 H   0  0  0  0  0  0  0  0  0  0  0  0
  1  2  1  0
  2  3  2  0
  2  4  1  0
  4  5  1  0
  5  6  1  0
  6  7  1  0
  7  8  1  0
  8  9  1  0
  9 10  1  0
 10 11  2  0
 11 12  1  0
 12 13  2  0
 13 14  1  0
 13 15  1  0
 15 16  2  0
 16 17  1  0
 16 18  1  0
 18 19  2  0
 19 20  1  0
 20 21  2  0
 21 22  1  0
 22 23  2  0
 23 24  1  0
 24 25  1  0
 24 26  2  0
 26 27  1  0
 26 28  1  0
 28 29  1  0
 28 30  2  0
  8 31  1  0
 31 32  1  0
 31 33  1  0
 33 34  1  0
 33 35  1  0
 35 36  1  0
 35  6  1  0
 21 10  1  0
 30 22  1  0
 19 12  1  0
  1 37  1  0
  1 38  1  0
  1 39  1  0
  5 40  1  0
  5 41  1  0
  6 42  1  0
  8 43  1  0
 11 44  1  0
 14 45  1  0
 15 46  1  0
 17 47  1  0
 18 48  1  0
 23 49  1  0
 25 50  1  0
 27 51  1  0
 29 52  1  0
 30 53  1  0
 31 54  1  0
 32 55  1  0
 33 56  1  0
 34 57  1  0
 35 58  1  0
 36 59  1  0
M  CHG  1  20   1
M  END
>  <LIG_ID>  (2) 
1

>  <_smiles>  (2) 
CC(=O)OCC1OC(OC2=CC3=C(O)C=C(O)C=C3[O+]=C2C2=CC(O)=C(O)C(O)=C2)C(O)C(O)C1O

>  <_name>  (2) 
Delphinidin 3-O-(6''-acetyl-galactoside)

>  <_molecular_weight>  (2) 
507.421

>  <_formula>  (2) 
C23H23O13

>  <_logP>  (2) 
0.6583999999999999

>  <_molecular_wt_calculated>  (2) 
507.4239999999999

>  <_havy_atom_count>  (2) 
36

>  <_hydrogen_acceptors>  (2) 
12

>  <_hydrogen_donors>  (2) 
8

>  <_rotatable_bonds>  (2) 
14

>  <_amide_bonds>  (2) 
0

>  <_ring_count>  (2) 
4

$$$$
Cyanidin 3-O-(6''-acetyl-galactoside)
     RDKit          3D

 58 61  0  0  0  0  0  0  0  0999 V2000
    2.7190    0.5713   -0.0796 C   0  0  1  0  0  0  0  0  0  0  0  0
    3.1878    1.4911   -1.2171 C   0  0  0  0  0  0  0  0  0  0  0  0
    4.4451    2.0928   -0.9063 O   0  0  0  0  0  0  0  0  0  0  0  0
    5.6761    1.6101   -1.3654 C   0  0  0  0  0  0  0  0  0  0  0  0
    6.9356    2.2601   -0.9040 C   0  0  0  0  0  0  0  0  0  0  0  0
    5.7362    0.6119   -2.1335 O   0  0  0  0  0  0  0  0  0  0  0  0
    1.3888    0.1641   -0.3516 O   0  0  0  0  0  0  0  0  0  0  0  0
    0.8356   -0.5051    0.7698 C   0  0  1  0  0  0  0  0  0  0  0  0
   -0.5342   -0.7988    0.5034 O   0  0  0  0  0  0  0  0  0  0  0  0
   -1.5446    0.1546    0.2903 C   0  0  0  0  0  0  0  0  0  0  0  0
   -1.3047    1.5351    0.3951 C   0  0  0  0  0  0  0  0  0  0  0  0
   -2.3546    2.4508    0.2179 C   0  0  0  0  0  0  0  0  0  0  0  0
   -2.1867    3.8578    0.3077 C   0  0  0  0  0  0  0  0  0  0  0  0
   -0.9541    4.4682    0.5587 O   0  0  0  0  0  0  0  0  0  0  0  0
   -3.2960    4.6952    0.1365 C   0  0  0  0  0  0  0  0  0  0  0  0
   -4.5633    4.1637   -0.1269 C   0  0  0  0  0  0  0  0  0  0  0  0
   -5.6631    5.0017   -0.2970 O   0  0  0  0  0  0  0  0  0  0  0  0
   -4.7305    2.7821   -0.2219 C   0  0  0  0  0  0  0  0  0  0  0  0
   -3.6398    1.9251   -0.0530 C   0  0  0  0  0  0  0  0  0  0  0  0
   -3.8276    0.6143   -0.1519 O   0  0  0  0  0  3  0  0  0  0  0  0
   -2.8510   -0.2769   -0.0094 C   0  0  0  0  0  0  0  0  0  0  0  0
   -3.1877   -1.7118   -0.1550 C   0  0  0  0  0  0  0  0  0  0  0  0
   -4.3809   -2.1996    0.3950 C   0  0  0  0  0  0  0  0  0  0  0  0
   -4.7223   -3.5464    0.2600 C   0  0  0  0  0  0  0  0  0  0  0  0
   -3.8893   -4.4282   -0.4372 C   0  0  0  0  0  0  0  0  0  0  0  0
   -4.2840   -5.7645   -0.5289 O   0  0  0  0  0  0  0  0  0  0  0  0
   -2.6950   -3.9414   -1.0192 C   0  0  0  0  0  0  0  0  0  0  0  0
   -1.8232   -4.7561   -1.7446 O   0  0  0  0  0  0  0  0  0  0  0  0
   -2.3603   -2.5889   -0.8774 C   0  0  0  0  0  0  0  0  0  0  0  0
    1.5842   -1.8278    1.0239 C   0  0  2  0  0  0  0  0  0  0  0  0
    1.0699   -2.4615    2.1670 O   0  0  0  0  0  0  0  0  0  0  0  0
    3.0799   -1.5441    1.2326 C   0  0  1  0  0  0  0  0  0  0  0  0
    3.7819   -2.7581    1.3054 O   0  0  0  0  0  0  0  0  0  0  0  0
    3.6266   -0.6689    0.0855 C   0  0  1  0  0  0  0  0  0  0  0  0
    3.6523   -1.4025   -1.1143 O   0  0  0  0  0  0  0  0  0  0  0  0
    2.7544    1.1803    0.8551 H   0  0  0  0  0  0  0  0  0  0  0  0
    2.4423    2.3071   -1.3299 H   0  0  0  0  0  0  0  0  0  0  0  0
    3.2233    0.9508   -2.1883 H   0  0  0  0  0  0  0  0  0  0  0  0
    7.6797    2.2780   -1.7280 H   0  0  0  0  0  0  0  0  0  0  0  0
    6.7293    3.3031   -0.5844 H   0  0  0  0  0  0  0  0  0  0  0  0
    7.3512    1.6918   -0.0461 H   0  0  0  0  0  0  0  0  0  0  0  0
    0.8867    0.1296    1.6860 H   0  0  0  0  0  0  0  0  0  0  0  0
   -0.3110    1.8738    0.6292 H   0  0  0  0  0  0  0  0  0  0  0  0
   -0.0823    3.9724    0.6736 H   0  0  0  0  0  0  0  0  0  0  0  0
   -3.1690    5.7685    0.2067 H   0  0  0  0  0  0  0  0  0  0  0  0
   -5.5762    6.0094   -0.2347 H   0  0  0  0  0  0  0  0  0  0  0  0
   -5.7118    2.3725   -0.4279 H   0  0  0  0  0  0  0  0  0  0  0  0
   -5.0428   -1.5400    0.9430 H   0  0  0  0  0  0  0  0  0  0  0  0
   -5.6417   -3.9092    0.7024 H   0  0  0  0  0  0  0  0  0  0  0  0
   -3.7499   -6.4797   -1.0009 H   0  0  0  0  0  0  0  0  0  0  0  0
   -1.9777   -5.7396   -1.9127 H   0  0  0  0  0  0  0  0  0  0  0  0
   -1.4606   -2.2224   -1.3559 H   0  0  0  0  0  0  0  0  0  0  0  0
    1.4658   -2.4909    0.1334 H   0  0  0  0  0  0  0  0  0  0  0  0
    0.2372   -2.9257    1.8894 H   0  0  0  0  0  0  0  0  0  0  0  0
    3.2004   -0.9897    2.1942 H   0  0  0  0  0  0  0  0  0  0  0  0
    4.6798   -2.5468    1.6731 H   0  0  0  0  0  0  0  0  0  0  0  0
    4.6541   -0.3325    0.3572 H   0  0  0  0  0  0  0  0  0  0  0  0
    4.4931   -1.9301   -1.1128 H   0  0  0  0  0  0  0  0  0  0  0  0
  1  2  1  0
  2  3  1  0
  3  4  1  0
  4  5  1  0
  4  6  2  0
  1  7  1  0
  7  8  1  0
  8  9  1  0
  9 10  1  0
 10 11  2  0
 11 12  1  0
 12 13  2  0
 13 14  1  0
 13 15  1  0
 15 16  2  0
 16 17  1  0
 16 18  1  0
 18 19  2  0
 19 20  1  0
 20 21  2  0
 21 22  1  0
 22 23  2  0
 23 24  1  0
 24 25  2  0
 25 26  1  0
 25 27  1  0
 27 28  1  0
 27 29  2  0
  8 30  1  0
 30 31  1  0
 30 32  1  0
 32 33  1  0
 32 34  1  0
 34 35  1  0
 34  1  1  0
 21 10  1  0
 29 22  1  0
 19 12  1  0
  1 36  1  1
  2 37  1  0
  2 38  1  0
  5 39  1  0
  5 40  1  0
  5 41  1  0
  8 42  1  1
 11 43  1  0
 14 44  1  0
 15 45  1  0
 17 46  1  0
 18 47  1  0
 23 48  1  0
 24 49  1  0
 26 50  1  0
 28 51  1  0
 29 52  1  0
 30 53  1  6
 31 54  1  0
 32 55  1  1
 33 56  1  0
 34 57  1  1
 35 58  1  0
M  CHG  1  20   1
M  END
>  <LIG_ID>  (3) 
2

>  <_smiles>  (3) 
[H][C@]1(COC(C)=O)O[C@@]([H])(OC2=CC3=C(O)C=C(O)C=C3[O+]=C2C2=CC=C(O)C(O)=C2)[C@]([H])(O)[C@@]([H])(O)[C@@]1([H])O

>  <_name>  (3) 
Cyanidin 3-O-(6''-acetyl-galactoside)

>  <_molecular_weight>  (3) 
491.422

>  <_formula>  (3) 
C23H23O12

>  <_logP>  (3) 
0.9527999999999994

>  <_molecular_wt_calculated>  (3) 
491.4249999999999

>  <_havy_atom_count>  (3) 
35

>  <_hydrogen_acceptors>  (3) 
11

>  <_hydrogen_donors>  (3) 
7

>  <_rotatable_bonds>  (3) 
13

>  <_amide_bonds>  (3) 
0

>  <_ring_count>  (3) 
4

$$$$
Cyanidin 3-O-galactoside
     RDKit          3D

 53 56  0  0  0  0  0  0  0  0999 V2000
    2.5423   -1.1831    3.4318 O   0  0  0  0  0  0  0  0  0  0  0  0
    3.3379   -0.1182    2.9897 C   0  0  0  0  0  0  0  0  0  0  0  0
    3.2212    0.0118    1.4676 C   0  0  1  0  0  0  0  0  0  0  0  0
    1.8755    0.3060    1.1316 O   0  0  0  0  0  0  0  0  0  0  0  0
    1.6911    0.2289   -0.2723 C   0  0  1  0  0  0  0  0  0  0  0  0
    0.3110    0.4258   -0.5719 O   0  0  0  0  0  0  0  0  0  0  0  0
   -0.7329   -0.4398   -0.2017 C   0  0  0  0  0  0  0  0  0  0  0  0
   -0.5079   -1.6038    0.5526 C   0  0  0  0  0  0  0  0  0  0  0  0
   -1.5880   -2.4076    0.9520 C   0  0  0  0  0  0  0  0  0  0  0  0
   -1.4379   -3.5880    1.7268 C   0  0  0  0  0  0  0  0  0  0  0  0
   -0.1987   -4.0670    2.1625 O   0  0  0  0  0  0  0  0  0  0  0  0
   -2.5739   -4.3244    2.0851 C   0  0  0  0  0  0  0  0  0  0  0  0
   -3.8515   -3.9110    1.6919 C   0  0  0  0  0  0  0  0  0  0  0  0
   -4.9781   -4.6471    2.0521 O   0  0  0  0  0  0  0  0  0  0  0  0
   -4.0024   -2.7511    0.9317 C   0  0  0  0  0  0  0  0  0  0  0  0
   -2.8846   -1.9997    0.5599 C   0  0  0  0  0  0  0  0  0  0  0  0
   -3.0576   -0.9019   -0.1670 O   0  0  0  0  0  3  0  0  0  0  0  0
   -2.0555   -0.1260   -0.5694 C   0  0  0  0  0  0  0  0  0  0  0  0
   -2.3794    1.0659   -1.3865 C   0  0  0  0  0  0  0  0  0  0  0  0
   -1.6126    1.4111   -2.5146 C   0  0  0  0  0  0  0  0  0  0  0  0
   -1.9437    2.5367   -3.2824 C   0  0  0  0  0  0  0  0  0  0  0  0
   -1.1758    2.8835   -4.3927 O   0  0  0  0  0  0  0  0  0  0  0  0
   -3.0545    3.3159   -2.9362 C   0  0  0  0  0  0  0  0  0  0  0  0
   -3.3789    4.4357   -3.6999 O   0  0  0  0  0  0  0  0  0  0  0  0
   -3.8348    2.9627   -1.8276 C   0  0  0  0  0  0  0  0  0  0  0  0
   -3.5038    1.8413   -1.0623 C   0  0  0  0  0  0  0  0  0  0  0  0
    2.5105    1.3286   -0.9785 C   0  0  2  0  0  0  0  0  0  0  0  0
    2.3325    1.2688   -2.3722 O   0  0  0  0  0  0  0  0  0  0  0  0
    4.0033    1.2022   -0.6041 C   0  0  1  0  0  0  0  0  0  0  0  0
    4.7245    2.3041   -1.0922 O   0  0  0  0  0  0  0  0  0  0  0  0
    4.1594    1.1141    0.9261 C   0  0  1  0  0  0  0  0  0  0  0  0
    3.8346    2.3477    1.5198 O   0  0  0  0  0  0  0  0  0  0  0  0
    2.6538   -1.2199    4.4173 H   0  0  0  0  0  0  0  0  0  0  0  0
    3.0021    0.8241    3.4782 H   0  0  0  0  0  0  0  0  0  0  0  0
    4.3991   -0.3093    3.2669 H   0  0  0  0  0  0  0  0  0  0  0  0
    3.5282   -0.9720    1.0383 H   0  0  0  0  0  0  0  0  0  0  0  0
    1.9958   -0.7708   -0.6628 H   0  0  0  0  0  0  0  0  0  0  0  0
    0.5002   -1.8590    0.8268 H   0  0  0  0  0  0  0  0  0  0  0  0
    0.6873   -3.6233    1.9695 H   0  0  0  0  0  0  0  0  0  0  0  0
   -2.4603   -5.2251    2.6758 H   0  0  0  0  0  0  0  0  0  0  0  0
   -4.9036   -5.4941    2.6036 H   0  0  0  0  0  0  0  0  0  0  0  0
   -4.9921   -2.4328    0.6278 H   0  0  0  0  0  0  0  0  0  0  0  0
   -0.7724    0.7978   -2.8148 H   0  0  0  0  0  0  0  0  0  0  0  0
   -0.3653    2.3406   -4.6673 H   0  0  0  0  0  0  0  0  0  0  0  0
   -4.1774    5.0176   -3.4747 H   0  0  0  0  0  0  0  0  0  0  0  0
   -4.6986    3.5569   -1.5580 H   0  0  0  0  0  0  0  0  0  0  0  0
   -4.1182    1.5863   -0.2073 H   0  0  0  0  0  0  0  0  0  0  0  0
    2.1389    2.3176   -0.6295 H   0  0  0  0  0  0  0  0  0  0  0  0
    2.6527    0.3804   -2.6794 H   0  0  0  0  0  0  0  0  0  0  0  0
    4.4160    0.2620   -1.0425 H   0  0  0  0  0  0  0  0  0  0  0  0
    4.8586    2.1526   -2.0642 H   0  0  0  0  0  0  0  0  0  0  0  0
    5.2134    0.8363    1.1661 H   0  0  0  0  0  0  0  0  0  0  0  0
    4.6504    2.9119    1.4804 H   0  0  0  0  0  0  0  0  0  0  0  0
  1  2  1  0
  2  3  1  0
  3  4  1  0
  4  5  1  0
  5  6  1  0
  6  7  1  0
  7  8  2  0
  8  9  1  0
  9 10  2  0
 10 11  1  0
 10 12  1  0
 12 13  2  0
 13 14  1  0
 13 15  1  0
 15 16  2  0
 16 17  1  0
 17 18  2  0
 18 19  1  0
 19 20  2  0
 20 21  1  0
 21 22  1  0
 21 23  2  0
 23 24  1  0
 23 25  1  0
 25 26  2  0
  5 27  1  0
 27 28  1  0
 27 29  1  0
 29 30  1  0
 29 31  1  0
 31 32  1  0
 31  3  1  0
 18  7  1  0
 26 19  1  0
 16  9  1  0
  1 33  1  0
  2 34  1  0
  2 35  1  0
  3 36  1  6
  5 37  1  6
  8 38  1  0
 11 39  1  0
 12 40  1  0
 14 41  1  0
 15 42  1  0
 20 43  1  0
 22 44  1  0
 24 45  1  0
 25 46  1  0
 26 47  1  0
 27 48  1  1
 28 49  1  0
 29 50  1  6
 30 51  1  0
 31 52  1  6
 32 53  1  0
M  CHG  1  17   1
M  END
>  <LIG_ID>  (4) 
3

>  <_smiles>  (4) 
OC[C@H]1O[C@@H](OC2=CC3=C(O)C=C(O)C=C3[O+]=C2C2=CC(O)=C(O)C=C2)[C@H](O)[C@@H](O)[C@H]1O

>  <_name>  (4) 
Cyanidin 3-O-galactoside

>  <_molecular_weight>  (4) 
449.385

>  <_formula>  (4) 
C21H21O11

>  <_logP>  (4) 
0.3820000000000002

>  <_molecular_wt_calculated>  (4) 
449.38799999999986

>  <_havy_atom_count>  (4) 
32

>  <_hydrogen_acceptors>  (4) 
10

>  <_hydrogen_donors>  (4) 
8

>  <_rotatable_bonds>  (4) 
12

>  <_amide_bonds>  (4) 
0

>  <_ring_count>  (4) 
4

$$$$
Cyanidin 3-O-glucoside
     RDKit          3D

 53 56  0  0  0  0  0  0  0  0999 V2000
    2.3319   -0.9453    2.8986 O   0  0  0  0  0  0  0  0  0  0  0  0
    1.6991   -1.2014    1.6734 C   0  0  0  0  0  0  0  0  0  0  0  0
    2.7045   -1.1199    0.5105 C   0  0  1  0  0  0  0  0  0  0  0  0
    2.1533   -1.7218   -0.6622 O   0  0  0  0  0  0  0  0  0  0  0  0
    1.6645   -0.7936   -1.6183 C   0  0  1  0  0  0  0  0  0  0  0  0
    0.6041   -0.0048   -1.0729 O   0  0  0  0  0  0  0  0  0  0  0  0
   -0.6640   -0.4811   -0.6985 C   0  0  0  0  0  0  0  0  0  0  0  0
   -1.0360   -1.8267   -0.8528 C   0  0  0  0  0  0  0  0  0  0  0  0
   -2.2951   -2.2665   -0.4120 C   0  0  0  0  0  0  0  0  0  0  0  0
   -3.1480   -1.3091    0.1862 C   0  0  0  0  0  0  0  0  0  0  0  0
   -4.4093   -1.6845    0.6560 C   0  0  0  0  0  0  0  0  0  0  0  0
   -4.8405   -3.0060    0.5403 C   0  0  0  0  0  0  0  0  0  0  0  0
   -6.1011   -3.3610    1.0153 O   0  0  0  0  0  0  0  0  0  0  0  0
   -4.0061   -3.9614   -0.0504 C   0  0  0  0  0  0  0  0  0  0  0  0
   -2.7380   -3.6104   -0.5299 C   0  0  0  0  0  0  0  0  0  0  0  0
   -1.9680   -4.6233   -1.1092 O   0  0  0  0  0  0  0  0  0  0  0  0
   -2.7634   -0.0443    0.3108 O   0  0  0  0  0  3  0  0  0  0  0  0
   -1.5843    0.4050   -0.1080 C   0  0  0  0  0  0  0  0  0  0  0  0
   -1.2662    1.8362    0.0987 C   0  0  0  0  0  0  0  0  0  0  0  0
   -1.6149    2.4531    1.3095 C   0  0  0  0  0  0  0  0  0  0  0  0
   -1.3293    3.8050    1.5382 C   0  0  0  0  0  0  0  0  0  0  0  0
   -1.6937    4.3488    2.7716 O   0  0  0  0  0  0  0  0  0  0  0  0
   -0.6914    4.5627    0.5276 C   0  0  0  0  0  0  0  0  0  0  0  0
   -0.3708    5.9127    0.6846 O   0  0  0  0  0  0  0  0  0  0  0  0
   -0.3646    3.9499   -0.6869 C   0  0  0  0  0  0  0  0  0  0  0  0
   -0.6539    2.6021   -0.9059 C   0  0  0  0  0  0  0  0  0  0  0  0
    2.7914    0.1246   -2.1559 C   0  0  2  0  0  0  0  0  0  0  0  0
    3.3986   -0.4406   -3.2916 O   0  0  0  0  0  0  0  0  0  0  0  0
    3.8597    0.4442   -1.0832 C   0  0  1  0  0  0  0  0  0  0  0  0
    4.3575    1.7439   -1.2707 O   0  0  0  0  0  0  0  0  0  0  0  0
    3.2555    0.3212    0.3187 C   0  0  2  0  0  0  0  0  0  0  0  0
    4.2386    0.5781    1.2900 O   0  0  0  0  0  0  0  0  0  0  0  0
    2.8312   -1.7690    3.1391 H   0  0  0  0  0  0  0  0  0  0  0  0
    1.2231   -2.2085    1.6929 H   0  0  0  0  0  0  0  0  0  0  0  0
    0.8910   -0.4550    1.5384 H   0  0  0  0  0  0  0  0  0  0  0  0
    3.5700   -1.7611    0.7904 H   0  0  0  0  0  0  0  0  0  0  0  0
    1.2593   -1.3614   -2.4840 H   0  0  0  0  0  0  0  0  0  0  0  0
   -0.3352   -2.5125   -1.2941 H   0  0  0  0  0  0  0  0  0  0  0  0
   -5.0566   -0.9462    1.1134 H   0  0  0  0  0  0  0  0  0  0  0  0
   -6.4448   -4.3118    0.9468 H   0  0  0  0  0  0  0  0  0  0  0  0
   -4.3443   -4.9864   -0.1395 H   0  0  0  0  0  0  0  0  0  0  0  0
   -1.0471   -4.4899   -1.5005 H   0  0  0  0  0  0  0  0  0  0  0  0
   -2.0987    1.8777    2.0900 H   0  0  0  0  0  0  0  0  0  0  0  0
   -1.5364    5.3113    3.0330 H   0  0  0  0  0  0  0  0  0  0  0  0
   -0.5605    6.4442    1.5219 H   0  0  0  0  0  0  0  0  0  0  0  0
    0.1123    4.5256   -1.4702 H   0  0  0  0  0  0  0  0  0  0  0  0
   -0.4159    2.1665   -1.8679 H   0  0  0  0  0  0  0  0  0  0  0  0
    2.3162    1.0776   -2.4798 H   0  0  0  0  0  0  0  0  0  0  0  0
    3.7447   -1.3347   -3.0319 H   0  0  0  0  0  0  0  0  0  0  0  0
    4.7007   -0.2868   -1.1517 H   0  0  0  0  0  0  0  0  0  0  0  0
    4.9431    1.7113   -2.0719 H   0  0  0  0  0  0  0  0  0  0  0  0
    2.4231    1.0589    0.4211 H   0  0  0  0  0  0  0  0  0  0  0  0
    4.3045    1.5644    1.3831 H   0  0  0  0  0  0  0  0  0  0  0  0
  1  2  1  0
  2  3  1  0
  3  4  1  0
  4  5  1  0
  5  6  1  0
  6  7  1  0
  7  8  2  0
  8  9  1  0
  9 10  2  0
 10 11  1  0
 11 12  2  0
 12 13  1  0
 12 14  1  0
 14 15  2  0
 15 16  1  0
 10 17  1  0
 17 18  2  0
 18 19  1  0
 19 20  2  0
 20 21  1  0
 21 22  1  0
 21 23  2  0
 23 24  1  0
 23 25  1  0
 25 26  2  0
  5 27  1  0
 27 28  1  0
 27 29  1  0
 29 30  1  0
 29 31  1  0
 31 32  1  0
 31  3  1  0
 18  7  1  0
 26 19  1  0
 15  9  1  0
  1 33  1  0
  2 34  1  0
  2 35  1  0
  3 36  1  1
  5 37  1  6
  8 38  1  0
 11 39  1  0
 13 40  1  0
 14 41  1  0
 16 42  1  0
 20 43  1  0
 22 44  1  0
 24 45  1  0
 25 46  1  0
 26 47  1  0
 27 48  1  6
 28 49  1  0
 29 50  1  1
 30 51  1  0
 31 52  1  6
 32 53  1  0
M  CHG  1  17   1
M  END
>  <LIG_ID>  (5) 
4

>  <_smiles>  (5) 
OC[C@H]1O[C@@H](OC2=CC3=C(C=C(O)C=C3O)[O+]=C2C2=CC(O)=C(O)C=C2)[C@H](O)[C@@H](O)[C@@H]1O

>  <_name>  (5) 
Cyanidin 3-O-glucoside

>  <_molecular_weight>  (5) 
449.385

>  <_formula>  (5) 
C21H21O11

>  <_logP>  (5) 
0.3820000000000002

>  <_molecular_wt_calculated>  (5) 
449.38799999999986

>  <_havy_atom_count>  (5) 
32

>  <_hydrogen_acceptors>  (5) 
10

>  <_hydrogen_donors>  (5) 
8

>  <_rotatable_bonds>  (5) 
12

>  <_amide_bonds>  (5) 
0

>  <_ring_count>  (5) 
4

$$$$
Cyanidin 3-O-rutinoside
     RDKit          3D

 73 77  0  0  0  0  0  0  0  0999 V2000
    6.6891    0.9228   -1.1421 C   0  0  0  0  0  0  0  0  0  0  0  0
    6.8794    0.3286    0.2585 C   0  0  2  0  0  0  0  0  0  0  0  0
    5.8115   -0.5625    0.5720 O   0  0  0  0  0  0  0  0  0  0  0  0
    4.7243    0.0926    1.2011 C   0  0  1  0  0  0  0  0  0  0  0  0
    3.6538   -0.8331    1.2764 O   0  0  0  0  0  0  0  0  0  0  0  0
    2.3927   -0.1943    1.3953 C   0  0  0  0  0  0  0  0  0  0  0  0
    1.4538   -0.6559    0.2712 C   0  0  1  0  0  0  0  0  0  0  0  0
    0.1512   -0.1848    0.5754 O   0  0  0  0  0  0  0  0  0  0  0  0
   -0.8019   -0.7040   -0.3333 C   0  0  1  0  0  0  0  0  0  0  0  0
   -2.0940   -0.2922    0.1194 O   0  0  0  0  0  0  0  0  0  0  0  0
   -3.3374   -0.8423   -0.2463 C   0  0  0  0  0  0  0  0  0  0  0  0
   -3.4560   -2.0688   -0.9236 C   0  0  0  0  0  0  0  0  0  0  0  0
   -4.7245   -2.5988   -1.2124 C   0  0  0  0  0  0  0  0  0  0  0  0
   -4.9203   -3.8296   -1.8936 C   0  0  0  0  0  0  0  0  0  0  0  0
   -3.8688   -4.6221   -2.3636 O   0  0  0  0  0  0  0  0  0  0  0  0
   -6.2231   -4.2909   -2.1199 C   0  0  0  0  0  0  0  0  0  0  0  0
   -7.3313   -3.5536   -1.6887 C   0  0  0  0  0  0  0  0  0  0  0  0
   -8.6250   -4.0173   -1.9172 O   0  0  0  0  0  0  0  0  0  0  0  0
   -7.1426   -2.3417   -1.0246 C   0  0  0  0  0  0  0  0  0  0  0  0
   -5.8528   -1.8606   -0.7851 C   0  0  0  0  0  0  0  0  0  0  0  0
   -5.7034   -0.7025   -0.1539 O   0  0  0  0  0  3  0  0  0  0  0  0
   -4.5179   -0.1644    0.1154 C   0  0  0  0  0  0  0  0  0  0  0  0
   -4.4880    1.1438    0.8079 C   0  0  0  0  0  0  0  0  0  0  0  0
   -5.3825    1.3894    1.8623 C   0  0  0  0  0  0  0  0  0  0  0  0
   -5.3854    2.6280    2.5200 C   0  0  0  0  0  0  0  0  0  0  0  0
   -6.2646    2.8642    3.5755 O   0  0  0  0  0  0  0  0  0  0  0  0
   -4.5011    3.6356    2.1151 C   0  0  0  0  0  0  0  0  0  0  0  0
   -4.5054    4.8648    2.7721 O   0  0  0  0  0  0  0  0  0  0  0  0
   -3.6215    3.4036    1.0497 C   0  0  0  0  0  0  0  0  0  0  0  0
   -3.6190    2.1694    0.3948 C   0  0  0  0  0  0  0  0  0  0  0  0
   -0.5351   -0.1305   -1.7403 C   0  0  2  0  0  0  0  0  0  0  0  0
   -1.4667   -0.6458   -2.6553 O   0  0  0  0  0  0  0  0  0  0  0  0
    0.8879   -0.4998   -2.1881 C   0  0  1  0  0  0  0  0  0  0  0  0
    1.1831    0.1699   -3.3872 O   0  0  0  0  0  0  0  0  0  0  0  0
    1.9114   -0.1117   -1.1042 C   0  0  2  0  0  0  0  0  0  0  0  0
    3.1654   -0.6518   -1.4369 O   0  0  0  0  0  0  0  0  0  0  0  0
    5.1389    0.5426    2.6303 C   0  0  2  0  0  0  0  0  0  0  0  0
    4.3234    1.6010    3.0720 O   0  0  0  0  0  0  0  0  0  0  0  0
    6.6432    0.9194    2.6977 C   0  0  2  0  0  0  0  0  0  0  0  0
    6.8771    1.8956    3.6805 O   0  0  0  0  0  0  0  0  0  0  0  0
    7.1248    1.4283    1.3342 C   0  0  1  0  0  0  0  0  0  0  0  0
    8.4926    1.7397    1.4095 O   0  0  0  0  0  0  0  0  0  0  0  0
    6.5196    0.1068   -1.8761 H   0  0  0  0  0  0  0  0  0  0  0  0
    7.5974    1.4842   -1.4467 H   0  0  0  0  0  0  0  0  0  0  0  0
    5.8197    1.6120   -1.1711 H   0  0  0  0  0  0  0  0  0  0  0  0
    7.7968   -0.2989    0.2131 H   0  0  0  0  0  0  0  0  0  0  0  0
    4.4385    0.9753    0.5785 H   0  0  0  0  0  0  0  0  0  0  0  0
    1.9521   -0.5040    2.3672 H   0  0  0  0  0  0  0  0  0  0  0  0
    2.4244    0.9203    1.4107 H   0  0  0  0  0  0  0  0  0  0  0  0
    1.4699   -1.7717    0.2602 H   0  0  0  0  0  0  0  0  0  0  0  0
   -0.7435   -1.8151   -0.3327 H   0  0  0  0  0  0  0  0  0  0  0  0
   -2.5673   -2.6025   -1.2021 H   0  0  0  0  0  0  0  0  0  0  0  0
   -2.8911   -4.3841   -2.2829 H   0  0  0  0  0  0  0  0  0  0  0  0
   -6.3730   -5.2302   -2.6378 H   0  0  0  0  0  0  0  0  0  0  0  0
   -8.7970   -4.8932   -2.3969 H   0  0  0  0  0  0  0  0  0  0  0  0
   -8.0016   -1.7712   -0.6933 H   0  0  0  0  0  0  0  0  0  0  0  0
   -6.0693    0.6149    2.1823 H   0  0  0  0  0  0  0  0  0  0  0  0
   -6.9164    2.1555    3.8913 H   0  0  0  0  0  0  0  0  0  0  0  0
   -3.8782    5.6130    2.5006 H   0  0  0  0  0  0  0  0  0  0  0  0
   -2.9448    4.1827    0.7226 H   0  0  0  0  0  0  0  0  0  0  0  0
   -2.9544    2.0266   -0.4478 H   0  0  0  0  0  0  0  0  0  0  0  0
   -0.6295    0.9807   -1.6841 H   0  0  0  0  0  0  0  0  0  0  0  0
   -1.5027   -0.0127   -3.4191 H   0  0  0  0  0  0  0  0  0  0  0  0
    0.9266   -1.6049   -2.3476 H   0  0  0  0  0  0  0  0  0  0  0  0
    1.8876   -0.3568   -3.8473 H   0  0  0  0  0  0  0  0  0  0  0  0
    1.9708    1.0021   -1.0414 H   0  0  0  0  0  0  0  0  0  0  0  0
    3.6157    0.0036   -2.0312 H   0  0  0  0  0  0  0  0  0  0  0  0
    4.9832   -0.3100    3.3276 H   0  0  0  0  0  0  0  0  0  0  0  0
    4.4871    2.3764    2.4740 H   0  0  0  0  0  0  0  0  0  0  0  0
    7.2328    0.0036    2.9441 H   0  0  0  0  0  0  0  0  0  0  0  0
    6.7693    1.4453    4.5588 H   0  0  0  0  0  0  0  0  0  0  0  0
    6.5453    2.3496    1.0859 H   0  0  0  0  0  0  0  0  0  0  0  0
    8.6967    2.3228    0.6326 H   0  0  0  0  0  0  0  0  0  0  0  0
  1  2  1  0
  2  3  1  0
  3  4  1  0
  4  5  1  0
  5  6  1  0
  6  7  1  0
  7  8  1  0
  8  9  1  0
  9 10  1  0
 10 11  1  0
 11 12  2  0
 12 13  1  0
 13 14  2  0
 14 15  1  0
 14 16  1  0
 16 17  2  0
 17 18  1  0
 17 19  1  0
 19 20  2  0
 20 21  1  0
 21 22  2  0
 22 23  1  0
 23 24  2  0
 24 25  1  0
 25 26  1  0
 25 27  2  0
 27 28  1  0
 27 29  1  0
 29 30  2  0
  9 31  1  0
 31 32  1  0
 31 33  1  0
 33 34  1  0
 33 35  1  0
 35 36  1  0
  4 37  1  0
 37 38  1  0
 37 39  1  0
 39 40  1  0
 39 41  1  0
 41 42  1  0
 41  2  1  0
 35  7  1  0
 22 11  1  0
 30 23  1  0
 20 13  1  0
  1 43  1  0
  1 44  1  0
  1 45  1  0
  2 46  1  6
  4 47  1  6
  6 48  1  0
  6 49  1  0
  7 50  1  6
  9 51  1  6
 12 52  1  0
 15 53  1  0
 16 54  1  0
 18 55  1  0
 19 56  1  0
 24 57  1  0
 26 58  1  0
 28 59  1  0
 29 60  1  0
 30 61  1  0
 31 62  1  1
 32 63  1  0
 33 64  1  6
 34 65  1  0
 35 66  1  1
 36 67  1  0
 37 68  1  1
 38 69  1  0
 39 70  1  1
 40 71  1  0
 41 72  1  6
 42 73  1  0
M  CHG  1  21   1
M  END
>  <LIG_ID>  (6) 
5

>  <_smiles>  (6) 
C[C@@H]1O[C@@H](OC[C@H]2O[C@@H](OC3=CC4=C(O)C=C(O)C=C4[O+]=C3C3=CC(O)=C(O)C=C3)[C@H](O)[C@@H](O)[C@@H]2O)[C@H](O)[C@H](O)[C@H]1O

>  <_name>  (6) 
Cyanidin 3-O-rutinoside

>  <_molecular_weight>  (6) 
595.526

>  <_formula>  (6) 
C27H31O15

>  <_logP>  (6) 
-0.7662

>  <_molecular_wt_calculated>  (6) 
595.5300000000016

>  <_havy_atom_count>  (6) 
42

>  <_hydrogen_acceptors>  (6) 
14

>  <_hydrogen_donors>  (6) 
10

>  <_rotatable_bonds>  (6) 
17

>  <_amide_bonds>  (6) 
0

>  <_ring_count>  (6) 
5

$$$$
Cyanidin 3-O-sophoroside
     RDKit          3D

 74 78  0  0  0  0  0  0  0  0999 V2000
    0.3628    3.5643   -0.6126 O   0  0  0  0  0  0  0  0  0  0  0  0
    1.6941    3.2106   -0.3433 C   0  0  0  0  0  0  0  0  0  0  0  0
    2.1227    1.9998   -1.1848 C   0  0  1  0  0  0  0  0  0  0  0  0
    1.2044    0.9428   -0.9610 O   0  0  0  0  0  0  0  0  0  0  0  0
    1.6625   -0.2540   -1.5712 C   0  0  1  0  0  0  0  0  0  0  0  0
    0.7692   -1.3039   -1.2548 O   0  0  0  0  0  0  0  0  0  0  0  0
    0.9186   -1.7365    0.0901 C   0  0  1  0  0  0  0  0  0  0  0  0
   -0.5021   -1.9794    0.6912 C   0  0  2  0  0  0  0  0  0  0  0  0
   -0.6017   -1.3687    1.9805 O   0  0  0  0  0  0  0  0  0  0  0  0
   -0.6434    0.0179    2.1801 C   0  0  0  0  0  0  0  0  0  0  0  0
    0.3843    0.6153    2.9105 C   0  0  0  0  0  0  0  0  0  0  0  0
    0.4209    2.0091    3.0703 C   0  0  0  0  0  0  0  0  0  0  0  0
    1.4546    2.6870    3.7667 C   0  0  0  0  0  0  0  0  0  0  0  0
    2.5176    2.0264    4.3890 O   0  0  0  0  0  0  0  0  0  0  0  0
    1.4288    4.0849    3.8449 C   0  0  0  0  0  0  0  0  0  0  0  0
    0.3987    4.8184    3.2524 C   0  0  0  0  0  0  0  0  0  0  0  0
    0.4037    6.2083    3.3457 O   0  0  0  0  0  0  0  0  0  0  0  0
   -0.6266    4.1544    2.5727 C   0  0  0  0  0  0  0  0  0  0  0  0
   -0.6211    2.7606    2.4767 C   0  0  0  0  0  0  0  0  0  0  0  0
   -1.6049    2.1537    1.8221 O   0  0  0  0  0  3  0  0  0  0  0  0
   -1.6758    0.8344    1.6694 C   0  0  0  0  0  0  0  0  0  0  0  0
   -2.8602    0.2822    0.9787 C   0  0  0  0  0  0  0  0  0  0  0  0
   -3.5335   -0.8464    1.4791 C   0  0  0  0  0  0  0  0  0  0  0  0
   -4.6507   -1.3621    0.8072 C   0  0  0  0  0  0  0  0  0  0  0  0
   -5.3067   -2.4915    1.2935 O   0  0  0  0  0  0  0  0  0  0  0  0
   -5.1128   -0.7394   -0.3591 C   0  0  0  0  0  0  0  0  0  0  0  0
   -6.2222   -1.2560   -1.0258 O   0  0  0  0  0  0  0  0  0  0  0  0
   -4.4589    0.4000   -0.8468 C   0  0  0  0  0  0  0  0  0  0  0  0
   -3.3433    0.9113   -0.1787 C   0  0  0  0  0  0  0  0  0  0  0  0
   -0.8146   -3.3562    0.8405 O   0  0  0  0  0  0  0  0  0  0  0  0
   -0.5380   -4.0637   -0.3524 C   0  0  2  0  0  0  0  0  0  0  0  0
   -1.2515   -5.4211   -0.2927 C   0  0  0  0  0  0  0  0  0  0  0  0
   -1.1145   -6.1094   -1.5074 O   0  0  0  0  0  0  0  0  0  0  0  0
    0.9987   -4.2263   -0.5060 C   0  0  1  0  0  0  0  0  0  0  0  0
    1.3530   -4.4008   -1.8566 O   0  0  0  0  0  0  0  0  0  0  0  0
    1.7626   -3.0316    0.1236 C   0  0  2  0  0  0  0  0  0  0  0  0
    2.0844   -3.3435    1.4567 O   0  0  0  0  0  0  0  0  0  0  0  0
    1.6832   -0.0908   -3.1003 C   0  0  2  0  0  0  0  0  0  0  0  0
    2.1649   -1.2734   -3.6851 O   0  0  0  0  0  0  0  0  0  0  0  0
    2.5847    1.0926   -3.4905 C   0  0  1  0  0  0  0  0  0  0  0  0
    2.4523    1.3398   -4.8670 O   0  0  0  0  0  0  0  0  0  0  0  0
    2.1875    2.3470   -2.6898 C   0  0  2  0  0  0  0  0  0  0  0  0
    3.1359    3.3627   -2.8988 O   0  0  0  0  0  0  0  0  0  0  0  0
    0.3857    4.2541   -1.3257 H   0  0  0  0  0  0  0  0  0  0  0  0
    1.7746    2.9401    0.7291 H   0  0  0  0  0  0  0  0  0  0  0  0
    2.3818    4.0721   -0.5079 H   0  0  0  0  0  0  0  0  0  0  0  0
    3.1408    1.7112   -0.8304 H   0  0  0  0  0  0  0  0  0  0  0  0
    2.6958   -0.5125   -1.2285 H   0  0  0  0  0  0  0  0  0  0  0  0
    1.4414   -0.9765    0.7199 H   0  0  0  0  0  0  0  0  0  0  0  0
   -1.2614   -1.5249    0.0197 H   0  0  0  0  0  0  0  0  0  0  0  0
    1.1553   -0.0279    3.3050 H   0  0  0  0  0  0  0  0  0  0  0  0
    2.6287    1.0233    4.4148 H   0  0  0  0  0  0  0  0  0  0  0  0
    2.2185    4.6059    4.3720 H   0  0  0  0  0  0  0  0  0  0  0  0
   -0.3280    6.7701    2.9264 H   0  0  0  0  0  0  0  0  0  0  0  0
   -1.4266    4.7214    2.1128 H   0  0  0  0  0  0  0  0  0  0  0  0
   -3.1953   -1.3237    2.3903 H   0  0  0  0  0  0  0  0  0  0  0  0
   -4.9943   -2.9658    2.1328 H   0  0  0  0  0  0  0  0  0  0  0  0
   -6.5796   -0.8269   -1.8714 H   0  0  0  0  0  0  0  0  0  0  0  0
   -4.8132    0.8887   -1.7454 H   0  0  0  0  0  0  0  0  0  0  0  0
   -2.8454    1.7881   -0.5750 H   0  0  0  0  0  0  0  0  0  0  0  0
   -0.9596   -3.5186   -1.2315 H   0  0  0  0  0  0  0  0  0  0  0  0
   -0.8702   -6.0301    0.5600 H   0  0  0  0  0  0  0  0  0  0  0  0
   -2.3341   -5.2472   -0.1138 H   0  0  0  0  0  0  0  0  0  0  0  0
   -0.2810   -6.6444   -1.4428 H   0  0  0  0  0  0  0  0  0  0  0  0
    1.3221   -5.1457    0.0314 H   0  0  0  0  0  0  0  0  0  0  0  0
    1.0934   -3.5802   -2.3491 H   0  0  0  0  0  0  0  0  0  0  0  0
    2.7083   -2.8714   -0.4460 H   0  0  0  0  0  0  0  0  0  0  0  0
    2.8053   -2.7196    1.7344 H   0  0  0  0  0  0  0  0  0  0  0  0
    0.6397    0.1091   -3.4441 H   0  0  0  0  0  0  0  0  0  0  0  0
    1.8533   -1.2764   -4.6277 H   0  0  0  0  0  0  0  0  0  0  0  0
    3.6417    0.8228   -3.2496 H   0  0  0  0  0  0  0  0  0  0  0  0
    3.2833    1.7969   -5.1603 H   0  0  0  0  0  0  0  0  0  0  0  0
    1.1769    2.6829   -3.0249 H   0  0  0  0  0  0  0  0  0  0  0  0
    2.8743    3.8361   -3.7312 H   0  0  0  0  0  0  0  0  0  0  0  0
  1  2  1  0
  2  3  1  0
  3  4  1  0
  4  5  1  0
  5  6  1  0
  6  7  1  0
  7  8  1  0
  8  9  1  0
  9 10  1  0
 10 11  2  0
 11 12  1  0
 12 13  2  0
 13 14  1  0
 13 15  1  0
 15 16  2  0
 16 17  1  0
 16 18  1  0
 18 19  2  0
 19 20  1  0
 20 21  2  0
 21 22  1  0
 22 23  2  0
 23 24  1  0
 24 25  1  0
 24 26  2  0
 26 27  1  0
 26 28  1  0
 28 29  2  0
  8 30  1  0
 30 31  1  0
 31 32  1  0
 32 33  1  0
 31 34  1  0
 34 35  1  0
 34 36  1  0
 36 37  1  0
  5 38  1  0
 38 39  1  0
 38 40  1  0
 40 41  1  0
 40 42  1  0
 42 43  1  0
 42  3  1  0
 36  7  1  0
 21 10  1  0
 29 22  1  0
 19 12  1  0
  1 44  1  0
  2 45  1  0
  2 46  1  0
  3 47  1  1
  5 48  1  1
  7 49  1  1
  8 50  1  6
 11 51  1  0
 14 52  1  0
 15 53  1  0
 17 54  1  0
 18 55  1  0
 23 56  1  0
 25 57  1  0
 27 58  1  0
 28 59  1  0
 29 60  1  0
 31 61  1  6
 32 62  1  0
 32 63  1  0
 33 64  1  0
 34 65  1  1
 35 66  1  0
 36 67  1  6
 37 68  1  0
 38 69  1  6
 39 70  1  0
 40 71  1  6
 41 72  1  0
 42 73  1  6
 43 74  1  0
M  CHG  1  20   1
M  END
>  <LIG_ID>  (7) 
6

>  <_smiles>  (7) 
OC[C@H]1O[C@@H](O[C@H]2[C@H](OC3=CC4=C(O)C=C(O)C=C4[O+]=C3C3=CC(O)=C(O)C=C3)O[C@H](CO)[C@@H](O)[C@@H]2O)[C@H](O)[C@@H](O)[C@@H]1O

>  <_name>  (7) 
Cyanidin 3-O-sophoroside

>  <_molecular_weight>  (7) 
611.525

>  <_formula>  (7) 
C27H31O16

>  <_logP>  (7) 
-1.7938000000000014

>  <_molecular_wt_calculated>  (7) 
611.5290000000016

>  <_havy_atom_count>  (7) 
43

>  <_hydrogen_acceptors>  (7) 
15

>  <_hydrogen_donors>  (7) 
11

>  <_rotatable_bonds>  (7) 
18

>  <_amide_bonds>  (7) 
0

>  <_ring_count>  (7) 
5

$$$$
Pelargonidin 3-O-glucoside
     RDKit          3D

 52 55  0  0  0  0  0  0  0  0999 V2000
    4.9844   -2.6100    0.7273 O   0  0  0  0  0  0  0  0  0  0  0  0
    3.6147   -2.3616    0.5594 C   0  0  0  0  0  0  0  0  0  0  0  0
    3.3700   -0.9435    0.0221 C   0  0  2  0  0  0  0  0  0  0  0  0
    1.9728   -0.7318   -0.0493 O   0  0  0  0  0  0  0  0  0  0  0  0
    1.6801    0.6481   -0.2259 C   0  0  2  0  0  0  0  0  0  0  0  0
    0.2876    0.7831   -0.5062 O   0  0  0  0  0  0  0  0  0  0  0  0
   -0.7576    0.3956    0.3489 C   0  0  0  0  0  0  0  0  0  0  0  0
   -0.5246   -0.0470    1.6615 C   0  0  0  0  0  0  0  0  0  0  0  0
   -1.6045   -0.3714    2.4905 C   0  0  0  0  0  0  0  0  0  0  0  0
   -1.4226   -0.8138    3.8151 C   0  0  0  0  0  0  0  0  0  0  0  0
   -0.1394   -0.9525    4.3453 O   0  0  0  0  0  0  0  0  0  0  0  0
   -2.5423   -1.1162    4.6041 C   0  0  0  0  0  0  0  0  0  0  0  0
   -3.8342   -0.9806    4.0856 C   0  0  0  0  0  0  0  0  0  0  0  0
   -4.9313   -1.2859    4.8880 O   0  0  0  0  0  0  0  0  0  0  0  0
   -4.0152   -0.5408    2.7680 C   0  0  0  0  0  0  0  0  0  0  0  0
   -2.9084   -0.2372    1.9693 C   0  0  0  0  0  0  0  0  0  0  0  0
   -3.0928    0.1743    0.7199 O   0  0  0  0  0  3  0  0  0  0  0  0
   -2.0911    0.4774   -0.1033 C   0  0  0  0  0  0  0  0  0  0  0  0
   -2.4241    0.9082   -1.4804 C   0  0  0  0  0  0  0  0  0  0  0  0
   -1.7039    0.4313   -2.5917 C   0  0  0  0  0  0  0  0  0  0  0  0
   -2.0457    0.8407   -3.8839 C   0  0  0  0  0  0  0  0  0  0  0  0
   -3.1196    1.7177   -4.0837 C   0  0  0  0  0  0  0  0  0  0  0  0
   -3.4683    2.1334   -5.3667 O   0  0  0  0  0  0  0  0  0  0  0  0
   -3.8527    2.1774   -2.9855 C   0  0  0  0  0  0  0  0  0  0  0  0
   -3.5129    1.7702   -1.6918 C   0  0  0  0  0  0  0  0  0  0  0  0
    2.4821    1.2841   -1.3972 C   0  0  1  0  0  0  0  0  0  0  0  0
    3.4630    2.1461   -0.8767 O   0  0  0  0  0  0  0  0  0  0  0  0
    3.1478    0.1900   -2.2589 C   0  0  2  0  0  0  0  0  0  0  0  0
    2.1591   -0.5721   -2.9064 O   0  0  0  0  0  0  0  0  0  0  0  0
    4.0148   -0.7394   -1.3803 C   0  0  1  0  0  0  0  0  0  0  0  0
    5.2929   -0.1718   -1.2369 O   0  0  0  0  0  0  0  0  0  0  0  0
    5.2663   -2.1118    1.5385 H   0  0  0  0  0  0  0  0  0  0  0  0
    3.1976   -3.1097   -0.1484 H   0  0  0  0  0  0  0  0  0  0  0  0
    3.0832   -2.4913    1.5300 H   0  0  0  0  0  0  0  0  0  0  0  0
    3.8242   -0.2339    0.7554 H   0  0  0  0  0  0  0  0  0  0  0  0
    1.8974    1.2025    0.7160 H   0  0  0  0  0  0  0  0  0  0  0  0
    0.4846   -0.1245    2.0418 H   0  0  0  0  0  0  0  0  0  0  0  0
    0.0112   -1.2696    5.2959 H   0  0  0  0  0  0  0  0  0  0  0  0
   -2.4094   -1.4569    5.6234 H   0  0  0  0  0  0  0  0  0  0  0  0
   -5.8803   -1.1986    4.5434 H   0  0  0  0  0  0  0  0  0  0  0  0
   -5.0146   -0.4360    2.3641 H   0  0  0  0  0  0  0  0  0  0  0  0
   -0.8931   -0.2747   -2.4659 H   0  0  0  0  0  0  0  0  0  0  0  0
   -1.4807    0.4690   -4.7292 H   0  0  0  0  0  0  0  0  0  0  0  0
   -2.9576    1.8170   -6.1827 H   0  0  0  0  0  0  0  0  0  0  0  0
   -4.6873    2.8506   -3.1348 H   0  0  0  0  0  0  0  0  0  0  0  0
   -4.0918    2.1386   -0.8536 H   0  0  0  0  0  0  0  0  0  0  0  0
    1.7892    1.8779   -2.0401 H   0  0  0  0  0  0  0  0  0  0  0  0
    3.7721    2.7185   -1.6270 H   0  0  0  0  0  0  0  0  0  0  0  0
    3.7972    0.6667   -3.0310 H   0  0  0  0  0  0  0  0  0  0  0  0
    1.7904   -0.0074   -3.6352 H   0  0  0  0  0  0  0  0  0  0  0  0
    4.1030   -1.7151   -1.9164 H   0  0  0  0  0  0  0  0  0  0  0  0
    5.9204   -0.9134   -1.0344 H   0  0  0  0  0  0  0  0  0  0  0  0
  1  2  1  0
  2  3  1  0
  3  4  1  0
  4  5  1  0
  5  6  1  0
  6  7  1  0
  7  8  2  0
  8  9  1  0
  9 10  2  0
 10 11  1  0
 10 12  1  0
 12 13  2  0
 13 14  1  0
 13 15  1  0
 15 16  2  0
 16 17  1  0
 17 18  2  0
 18 19  1  0
 19 20  2  0
 20 21  1  0
 21 22  2  0
 22 23  1  0
 22 24  1  0
 24 25  2  0
  5 26  1  0
 26 27  1  0
 26 28  1  0
 28 29  1  0
 28 30  1  0
 30 31  1  0
 30  3  1  0
 18  7  1  0
 25 19  1  0
 16  9  1  0
  1 32  1  0
  2 33  1  0
  2 34  1  0
  3 35  1  1
  5 36  1  1
  8 37  1  0
 11 38  1  0
 12 39  1  0
 14 40  1  0
 15 41  1  0
 20 42  1  0
 21 43  1  0
 23 44  1  0
 24 45  1  0
 25 46  1  0
 26 47  1  6
 27 48  1  0
 28 49  1  6
 29 50  1  0
 30 51  1  6
 31 52  1  0
M  CHG  1  17   1
M  END
>  <LIG_ID>  (8) 
7

>  <_smiles>  (8) 
OC[C@@H]1O[C@H](OC2=CC3=C(O)C=C(O)C=C3[O+]=C2C2=CC=C(O)C=C2)[C@@H](O)[C@H](O)[C@H]1O

>  <_name>  (8) 
Pelargonidin 3-O-glucoside

>  <_molecular_weight>  (8) 
433.385

>  <_formula>  (8) 
C21H21O10

>  <_logP>  (8) 
0.6763999999999999

>  <_molecular_wt_calculated>  (8) 
433.38899999999984

>  <_havy_atom_count>  (8) 
31

>  <_hydrogen_acceptors>  (8) 
9

>  <_hydrogen_donors>  (8) 
7

>  <_rotatable_bonds>  (8) 
11

>  <_amide_bonds>  (8) 
0

>  <_ring_count>  (8) 
4

$$$$
Cyanidin 3-O-(6''-malonyl-glucoside)
     RDKit          3D

 61 64  0  0  0  0  0  0  0  0999 V2000
   -1.1813   -2.9186    2.7195 O   0  0  0  0  0  0  0  0  0  0  0  0
   -1.0720   -3.1309    1.3351 C   0  0  2  0  0  0  0  0  0  0  0  0
    0.1343   -2.3092    0.7628 C   0  0  1  0  0  0  0  0  0  0  0  0
    1.0490   -3.1909   -0.0925 C   0  0  0  0  0  0  0  0  0  0  0  0
    1.6430   -4.2041    0.7141 O   0  0  0  0  0  0  0  0  0  0  0  0
    2.5288   -5.1546    0.2001 C   0  0  0  0  0  0  0  0  0  0  0  0
    2.8538   -5.1399   -1.0187 O   0  0  0  0  0  0  0  0  0  0  0  0
    3.1294   -6.1682    1.1176 C   0  0  0  0  0  0  0  0  0  0  0  0
    4.3065   -5.5786    1.8230 C   0  0  0  0  0  0  0  0  0  0  0  0
    4.1193   -4.8536    2.9958 O   0  0  0  0  0  0  0  0  0  0  0  0
    5.4623   -5.7029    1.3365 O   0  0  0  0  0  0  0  0  0  0  0  0
   -0.2799   -1.2065   -0.0303 O   0  0  0  0  0  0  0  0  0  0  0  0
   -1.2445   -0.4395    0.6633 C   0  0  1  0  0  0  0  0  0  0  0  0
   -1.4042    0.8188    0.0109 O   0  0  0  0  0  0  0  0  0  0  0  0
   -0.4019    1.7942   -0.1301 C   0  0  0  0  0  0  0  0  0  0  0  0
    0.8654    1.6552    0.4607 C   0  0  0  0  0  0  0  0  0  0  0  0
    1.8213    2.6759    0.3329 C   0  0  0  0  0  0  0  0  0  0  0  0
    3.1204    2.6043    0.9016 C   0  0  0  0  0  0  0  0  0  0  0  0
    3.5809    1.4996    1.6243 O   0  0  0  0  0  0  0  0  0  0  0  0
    4.0019    3.6804    0.7404 C   0  0  0  0  0  0  0  0  0  0  0  0
    3.6210    4.8197    0.0228 C   0  0  0  0  0  0  0  0  0  0  0  0
    4.5026    5.8869   -0.1349 O   0  0  0  0  0  0  0  0  0  0  0  0
    2.3477    4.8904   -0.5425 C   0  0  0  0  0  0  0  0  0  0  0  0
    1.4490    3.8309   -0.3942 C   0  0  0  0  0  0  0  0  0  0  0  0
    0.2446    3.9240   -0.9459 O   0  0  0  0  0  3  0  0  0  0  0  0
   -0.6747    2.9670   -0.8602 C   0  0  0  0  0  0  0  0  0  0  0  0
   -1.9755    3.1860   -1.5332 C   0  0  0  0  0  0  0  0  0  0  0  0
   -2.5971    2.1664   -2.2747 C   0  0  0  0  0  0  0  0  0  0  0  0
   -3.8199    2.3890   -2.9202 C   0  0  0  0  0  0  0  0  0  0  0  0
   -4.3826    1.3289   -3.6340 O   0  0  0  0  0  0  0  0  0  0  0  0
   -4.4316    3.6621   -2.8340 C   0  0  0  0  0  0  0  0  0  0  0  0
   -5.6533    3.9556   -3.4429 O   0  0  0  0  0  0  0  0  0  0  0  0
   -3.7974    4.6812   -2.1151 C   0  0  0  0  0  0  0  0  0  0  0  0
   -2.5778    4.4502   -1.4763 C   0  0  0  0  0  0  0  0  0  0  0  0
   -2.5948   -1.1880    0.6485 C   0  0  2  0  0  0  0  0  0  0  0  0
   -3.4076   -0.7695    1.7172 O   0  0  0  0  0  0  0  0  0  0  0  0
   -2.3974   -2.7301    0.6569 C   0  0  1  0  0  0  0  0  0  0  0  0
   -2.3903   -3.2170   -0.6621 O   0  0  0  0  0  0  0  0  0  0  0  0
   -0.4429   -3.4274    3.1463 H   0  0  0  0  0  0  0  0  0  0  0  0
   -0.9298   -4.2241    1.1599 H   0  0  0  0  0  0  0  0  0  0  0  0
    0.7615   -1.9263    1.6016 H   0  0  0  0  0  0  0  0  0  0  0  0
    0.4646   -3.6565   -0.9164 H   0  0  0  0  0  0  0  0  0  0  0  0
    1.8515   -2.5621   -0.5374 H   0  0  0  0  0  0  0  0  0  0  0  0
    3.4410   -7.0676    0.5429 H   0  0  0  0  0  0  0  0  0  0  0  0
    2.3706   -6.4848    1.8644 H   0  0  0  0  0  0  0  0  0  0  0  0
    4.9049   -4.4329    3.4774 H   0  0  0  0  0  0  0  0  0  0  0  0
   -0.9274   -0.2468    1.7164 H   0  0  0  0  0  0  0  0  0  0  0  0
    1.0814    0.7652    1.0244 H   0  0  0  0  0  0  0  0  0  0  0  0
    3.0482    0.6571    1.7843 H   0  0  0  0  0  0  0  0  0  0  0  0
    4.9923    3.6273    1.1754 H   0  0  0  0  0  0  0  0  0  0  0  0
    5.4346    5.8675    0.2624 H   0  0  0  0  0  0  0  0  0  0  0  0
    2.0554    5.7722   -1.0995 H   0  0  0  0  0  0  0  0  0  0  0  0
   -2.1234    1.1979   -2.3763 H   0  0  0  0  0  0  0  0  0  0  0  0
   -5.2536    1.3892   -4.1414 H   0  0  0  0  0  0  0  0  0  0  0  0
   -6.1937    3.2887   -3.9747 H   0  0  0  0  0  0  0  0  0  0  0  0
   -4.2549    5.6604   -2.0502 H   0  0  0  0  0  0  0  0  0  0  0  0
   -2.1103    5.2567   -0.9243 H   0  0  0  0  0  0  0  0  0  0  0  0
   -3.1310   -0.9170   -0.2884 H   0  0  0  0  0  0  0  0  0  0  0  0
   -2.9659   -1.0460    2.5615 H   0  0  0  0  0  0  0  0  0  0  0  0
   -3.2352   -3.2127    1.2148 H   0  0  0  0  0  0  0  0  0  0  0  0
   -3.3354   -3.2424   -0.9657 H   0  0  0  0  0  0  0  0  0  0  0  0
  1  2  1  0
  2  3  1  0
  3  4  1  0
  4  5  1  0
  5  6  1  0
  6  7  2  0
  6  8  1  0
  8  9  1  0
  9 10  1  0
  9 11  2  0
  3 12  1  0
 12 13  1  0
 13 14  1  0
 14 15  1  0
 15 16  2  0
 16 17  1  0
 17 18  2  0
 18 19  1  0
 18 20  1  0
 20 21  2  0
 21 22  1  0
 21 23  1  0
 23 24  2  0
 24 25  1  0
 25 26  2  0
 26 27  1  0
 27 28  2  0
 28 29  1  0
 29 30  1  0
 29 31  2  0
 31 32  1  0
 31 33  1  0
 33 34  2  0
 13 35  1  0
 35 36  1  0
 35 37  1  0
 37 38  1  0
 37  2  1  0
 26 15  1  0
 34 27  1  0
 24 17  1  0
  1 39  1  0
  2 40  1  1
  3 41  1  1
  4 42  1  0
  4 43  1  0
  8 44  1  0
  8 45  1  0
 10 46  1  0
 13 47  1  1
 16 48  1  0
 19 49  1  0
 20 50  1  0
 22 51  1  0
 23 52  1  0
 28 53  1  0
 30 54  1  0
 32 55  1  0
 33 56  1  0
 34 57  1  0
 35 58  1  6
 36 59  1  0
 37 60  1  1
 38 61  1  0
M  CHG  1  25   1
M  END
>  <LIG_ID>  (9) 
8

>  <_smiles>  (9) 
O[C@@H]1[C@@H](COC(=O)CC(O)=O)O[C@@H](OC2=CC3=C(O)C=C(O)C=C3[O+]=C2C2=CC(O)=C(O)C=C2)[C@H](O)[C@H]1O

>  <_name>  (9) 
Cyanidin 3-O-(6''-malonyl-glucoside)

>  <_molecular_weight>  (9) 
535.431

>  <_formula>  (9) 
C24H23O14

>  <_logP>  (9) 
0.4075999999999987

>  <_molecular_wt_calculated>  (9) 
535.4340000000012

>  <_havy_atom_count>  (9) 
38

>  <_hydrogen_acceptors>  (9) 
13

>  <_hydrogen_donors>  (9) 
8

>  <_rotatable_bonds>  (9) 
14

>  <_amide_bonds>  (9) 
0

>  <_ring_count>  (9) 
4

$$$$
Peonidin
     RDKit          3D

 35 37  0  0  0  0  0  0  0  0999 V2000
    4.2371    2.0716    0.3951 C   0  0  0  0  0  0  0  0  0  0  0  0
    4.5065    0.7528   -0.0695 O   0  0  0  0  0  0  0  0  0  0  0  0
    3.5228   -0.2039   -0.3672 C   0  0  0  0  0  0  0  0  0  0  0  0
    3.9260   -1.4741   -0.8174 C   0  0  0  0  0  0  0  0  0  0  0  0
    5.2760   -1.7890   -0.9720 O   0  0  0  0  0  0  0  0  0  0  0  0
    2.9682   -2.4479   -1.1137 C   0  0  0  0  0  0  0  0  0  0  0  0
    1.6079   -2.1689   -0.9730 C   0  0  0  0  0  0  0  0  0  0  0  0
    1.1845   -0.9004   -0.5445 C   0  0  0  0  0  0  0  0  0  0  0  0
    2.1475    0.0714   -0.2269 C   0  0  0  0  0  0  0  0  0  0  0  0
   -0.2520   -0.5886   -0.3639 C   0  0  0  0  0  0  0  0  0  0  0  0
   -0.6146    0.1082    0.7099 O   0  0  0  0  0  3  0  0  0  0  0  0
   -1.8745    0.4366    0.9757 C   0  0  0  0  0  0  0  0  0  0  0  0
   -2.1569    1.1690    2.1317 C   0  0  0  0  0  0  0  0  0  0  0  0
   -3.4738    1.5253    2.4369 C   0  0  0  0  0  0  0  0  0  0  0  0
   -3.7627    2.2557    3.5876 O   0  0  0  0  0  0  0  0  0  0  0  0
   -4.5122    1.1467    1.5832 C   0  0  0  0  0  0  0  0  0  0  0  0
   -4.2556    0.4122    0.4187 C   0  0  0  0  0  0  0  0  0  0  0  0
   -5.3500    0.0699   -0.3806 O   0  0  0  0  0  0  0  0  0  0  0  0
   -2.9202    0.0504    0.1029 C   0  0  0  0  0  0  0  0  0  0  0  0
   -2.5678   -0.6728   -1.0483 C   0  0  0  0  0  0  0  0  0  0  0  0
   -1.2283   -0.9887   -1.2951 C   0  0  0  0  0  0  0  0  0  0  0  0
   -0.8722   -1.6635   -2.4629 O   0  0  0  0  0  0  0  0  0  0  0  0
    3.6385    2.6269   -0.3576 H   0  0  0  0  0  0  0  0  0  0  0  0
    5.1975    2.6049    0.5482 H   0  0  0  0  0  0  0  0  0  0  0  0
    3.6944    2.0321    1.3632 H   0  0  0  0  0  0  0  0  0  0  0  0
    6.0123   -1.1231   -0.7710 H   0  0  0  0  0  0  0  0  0  0  0  0
    3.2810   -3.4295   -1.4467 H   0  0  0  0  0  0  0  0  0  0  0  0
    0.8908   -2.9540   -1.1753 H   0  0  0  0  0  0  0  0  0  0  0  0
    1.8183    1.0430    0.1170 H   0  0  0  0  0  0  0  0  0  0  0  0
   -1.3504    1.4608    2.7933 H   0  0  0  0  0  0  0  0  0  0  0  0
   -3.0330    2.5459    4.2281 H   0  0  0  0  0  0  0  0  0  0  0  0
   -5.5301    1.4251    1.8268 H   0  0  0  0  0  0  0  0  0  0  0  0
   -5.2878   -0.4664   -1.2337 H   0  0  0  0  0  0  0  0  0  0  0  0
   -3.3024   -0.9885   -1.7720 H   0  0  0  0  0  0  0  0  0  0  0  0
   -1.5648   -1.9491   -3.1452 H   0  0  0  0  0  0  0  0  0  0  0  0
  1  2  1  0
  2  3  1  0
  3  4  2  0
  4  5  1  0
  4  6  1  0
  6  7  2  0
  7  8  1  0
  8  9  2  0
  8 10  1  0
 10 11  2  0
 11 12  1  0
 12 13  2  0
 13 14  1  0
 14 15  1  0
 14 16  2  0
 16 17  1  0
 17 18  1  0
 17 19  2  0
 19 20  1  0
 20 21  2  0
 21 22  1  0
  9  3  1  0
 21 10  1  0
 19 12  1  0
  1 23  1  0
  1 24  1  0
  1 25  1  0
  5 26  1  0
  6 27  1  0
  7 28  1  0
  9 29  1  0
 13 30  1  0
 15 31  1  0
 16 32  1  0
 18 33  1  0
 20 34  1  0
 22 35  1  0
M  CHG  1  11   1
M  END
>  <LIG_ID>  (10) 
9

>  <_smiles>  (10) 
COC1=C(O)C=CC(=C1)C1=[O+]C2=CC(O)=CC(O)=C2C=C1O

>  <_name>  (10) 
Peonidin

>  <_molecular_weight>  (10) 
301.271

>  <_formula>  (10) 
C16H13O6

>  <_logP>  (10) 
3.2119000000000004

>  <_molecular_wt_calculated>  (10) 
301.2739999999998

>  <_havy_atom_count>  (10) 
22

>  <_hydrogen_acceptors>  (10) 
5

>  <_hydrogen_donors>  (10) 
4

>  <_rotatable_bonds>  (10) 
7

>  <_amide_bonds>  (10) 
0

>  <_ring_count>  (10) 
3

$$$$
Peonidin 3-O-glucoside
     RDKit          3D

 56 59  0  0  0  0  0  0  0  0999 V2000
   -4.7391   -4.0388   -0.1551 C   0  0  0  0  0  0  0  0  0  0  0  0
   -3.9494   -4.1599    1.0236 O   0  0  0  0  0  0  0  0  0  0  0  0
   -3.0404   -3.1904    1.4770 C   0  0  0  0  0  0  0  0  0  0  0  0
   -2.3217   -3.4354    2.6611 C   0  0  0  0  0  0  0  0  0  0  0  0
   -2.4979   -4.6179    3.3796 O   0  0  0  0  0  0  0  0  0  0  0  0
   -1.4160   -2.4844    3.1395 C   0  0  0  0  0  0  0  0  0  0  0  0
   -1.2118   -1.2904    2.4466 C   0  0  0  0  0  0  0  0  0  0  0  0
   -1.9038   -1.0366    1.2510 C   0  0  0  0  0  0  0  0  0  0  0  0
   -2.8293   -1.9827    0.7817 C   0  0  0  0  0  0  0  0  0  0  0  0
   -1.7152    0.2299    0.5068 C   0  0  0  0  0  0  0  0  0  0  0  0
   -2.7934    0.8385    0.0218 O   0  0  0  0  0  3  0  0  0  0  0  0
   -2.7451    1.9800   -0.6548 C   0  0  0  0  0  0  0  0  0  0  0  0
   -3.9354    2.5431   -1.1221 C   0  0  0  0  0  0  0  0  0  0  0  0
   -3.9166    3.7433   -1.8327 C   0  0  0  0  0  0  0  0  0  0  0  0
   -5.1139    4.2891   -2.2903 O   0  0  0  0  0  0  0  0  0  0  0  0
   -2.6992    4.3874   -2.0793 C   0  0  0  0  0  0  0  0  0  0  0  0
   -1.4924    3.8431   -1.6224 C   0  0  0  0  0  0  0  0  0  0  0  0
   -0.3203    4.5484   -1.9112 O   0  0  0  0  0  0  0  0  0  0  0  0
   -1.5080    2.6213   -0.8991 C   0  0  0  0  0  0  0  0  0  0  0  0
   -0.3479    1.9978   -0.4111 C   0  0  0  0  0  0  0  0  0  0  0  0
   -0.4385    0.7823    0.2882 C   0  0  0  0  0  0  0  0  0  0  0  0
    0.6983    0.0949    0.7479 O   0  0  0  0  0  0  0  0  0  0  0  0
    2.0509    0.5088    0.5608 C   0  0  2  0  0  0  0  0  0  0  0  0
    2.3389    0.5017   -0.8314 O   0  0  0  0  0  0  0  0  0  0  0  0
    3.7235    0.6868   -1.0527 C   0  0  2  0  0  0  0  0  0  0  0  0
    3.9381    1.0601   -2.5258 C   0  0  0  0  0  0  0  0  0  0  0  0
    5.2801    1.3924   -2.7645 O   0  0  0  0  0  0  0  0  0  0  0  0
    4.4953   -0.6035   -0.6662 C   0  0  1  0  0  0  0  0  0  0  0  0
    5.7761   -0.2503   -0.2083 O   0  0  0  0  0  0  0  0  0  0  0  0
    3.7398   -1.3980    0.4322 C   0  0  2  0  0  0  0  0  0  0  0  0
    2.8223   -2.2834   -0.1601 O   0  0  0  0  0  0  0  0  0  0  0  0
    2.9772   -0.4482    1.3706 C   0  0  1  0  0  0  0  0  0  0  0  0
    3.9032    0.2945    2.1229 O   0  0  0  0  0  0  0  0  0  0  0  0
   -4.0833   -3.9462   -1.0464 H   0  0  0  0  0  0  0  0  0  0  0  0
   -5.3640   -4.9483   -0.2674 H   0  0  0  0  0  0  0  0  0  0  0  0
   -5.4079   -3.1556   -0.0778 H   0  0  0  0  0  0  0  0  0  0  0  0
   -3.1411   -5.3409    3.0804 H   0  0  0  0  0  0  0  0  0  0  0  0
   -0.8735   -2.6689    4.0581 H   0  0  0  0  0  0  0  0  0  0  0  0
   -0.5299   -0.5578    2.8591 H   0  0  0  0  0  0  0  0  0  0  0  0
   -3.3710   -1.7773   -0.1323 H   0  0  0  0  0  0  0  0  0  0  0  0
   -4.8788    2.0462   -0.9315 H   0  0  0  0  0  0  0  0  0  0  0  0
   -5.1355    5.1592   -2.8093 H   0  0  0  0  0  0  0  0  0  0  0  0
   -2.6881    5.3192   -2.6312 H   0  0  0  0  0  0  0  0  0  0  0  0
    0.6058    4.2592   -1.6325 H   0  0  0  0  0  0  0  0  0  0  0  0
    0.6219    2.4329   -0.5743 H   0  0  0  0  0  0  0  0  0  0  0  0
    2.1522    1.5446    0.9590 H   0  0  0  0  0  0  0  0  0  0  0  0
    4.0964    1.5481   -0.4462 H   0  0  0  0  0  0  0  0  0  0  0  0
    3.3141    1.9480   -2.7636 H   0  0  0  0  0  0  0  0  0  0  0  0
    3.6040    0.2331   -3.1948 H   0  0  0  0  0  0  0  0  0  0  0  0
    5.7517    0.5469   -2.9834 H   0  0  0  0  0  0  0  0  0  0  0  0
    4.5964   -1.2595   -1.5640 H   0  0  0  0  0  0  0  0  0  0  0  0
    6.3374   -1.0678   -0.2615 H   0  0  0  0  0  0  0  0  0  0  0  0
    4.4660   -1.9849    1.0436 H   0  0  0  0  0  0  0  0  0  0  0  0
    3.3454   -3.0565   -0.4988 H   0  0  0  0  0  0  0  0  0  0  0  0
    2.3676   -1.0725    2.0673 H   0  0  0  0  0  0  0  0  0  0  0  0
    3.4060    0.6755    2.8934 H   0  0  0  0  0  0  0  0  0  0  0  0
  1  2  1  0
  2  3  1  0
  3  4  2  0
  4  5  1  0
  4  6  1  0
  6  7  2  0
  7  8  1  0
  8  9  2  0
  8 10  1  0
 10 11  2  0
 11 12  1  0
 12 13  2  0
 13 14  1  0
 14 15  1  0
 14 16  2  0
 16 17  1  0
 17 18  1  0
 17 19  2  0
 19 20  1  0
 20 21  2  0
 21 22  1  0
 22 23  1  0
 23 24  1  0
 24 25  1  0
 25 26  1  0
 26 27  1  0
 25 28  1  0
 28 29  1  0
 28 30  1  0
 30 31  1  0
 30 32  1  0
 32 33  1  0
  9  3  1  0
 21 10  1  0
 32 23  1  0
 19 12  1  0
  1 34  1  0
  1 35  1  0
  1 36  1  0
  5 37  1  0
  6 38  1  0
  7 39  1  0
  9 40  1  0
 13 41  1  0
 15 42  1  0
 16 43  1  0
 18 44  1  0
 20 45  1  0
 23 46  1  1
 25 47  1  1
 26 48  1  0
 26 49  1  0
 27 50  1  0
 28 51  1  6
 29 52  1  0
 30 53  1  1
 31 54  1  0
 32 55  1  1
 33 56  1  0
M  CHG  1  11   1
M  END
>  <LIG_ID>  (11) 
10

>  <_smiles>  (11) 
COC1=C(O)C=CC(=C1)C1=[O+]C2=CC(O)=CC(O)=C2C=C1O[C@@H]1O[C@H](CO)[C@@H](O)[C@H](O)[C@H]1O

>  <_name>  (11) 
Peonidin 3-O-glucoside

>  <_molecular_weight>  (11) 
463.411

>  <_formula>  (11) 
C22H23O11

>  <_logP>  (11) 
0.6850000000000003

>  <_molecular_wt_calculated>  (11) 
463.41499999999985

>  <_havy_atom_count>  (11) 
33

>  <_hydrogen_acceptors>  (11) 
10

>  <_hydrogen_donors>  (11) 
7

>  <_rotatable_bonds>  (11) 
13

>  <_amide_bonds>  (11) 
0

>  <_ring_count>  (11) 
4

$$$$
Peonidin 3-O-rutinoside
     RDKit          3D

 76 80  0  0  0  0  0  0  0  0999 V2000
    6.4813    1.2425   -0.8130 C   0  0  2  0  0  0  0  0  0  0  0  0
    7.8387    1.1382   -0.1171 C   0  0  0  0  0  0  0  0  0  0  0  0
    5.9607   -0.0627   -0.9878 O   0  0  0  0  0  0  0  0  0  0  0  0
    4.5774   -0.0333   -1.3162 C   0  0  1  0  0  0  0  0  0  0  0  0
    3.8325    0.1919   -0.1293 O   0  0  0  0  0  0  0  0  0  0  0  0
    2.5951   -0.4901   -0.1681 C   0  0  0  0  0  0  0  0  0  0  0  0
    1.7462   -0.0997    1.0482 C   0  0  1  0  0  0  0  0  0  0  0  0
    0.4420   -0.6203    0.8553 O   0  0  0  0  0  0  0  0  0  0  0  0
   -0.4366   -0.1435    1.8593 C   0  0  1  0  0  0  0  0  0  0  0  0
   -1.7627   -0.5730    1.5579 O   0  0  0  0  0  0  0  0  0  0  0  0
   -2.4932   -0.2065    0.4141 C   0  0  0  0  0  0  0  0  0  0  0  0
   -1.9922    0.7020   -0.5339 C   0  0  0  0  0  0  0  0  0  0  0  0
   -2.7722    1.0709   -1.6417 C   0  0  0  0  0  0  0  0  0  0  0  0
   -4.0662    0.5088   -1.7443 C   0  0  0  0  0  0  0  0  0  0  0  0
   -4.9009    0.8519   -2.8110 C   0  0  0  0  0  0  0  0  0  0  0  0
   -4.4663    1.7496   -3.7862 C   0  0  0  0  0  0  0  0  0  0  0  0
   -5.3138    2.0808   -4.8412 O   0  0  0  0  0  0  0  0  0  0  0  0
   -3.1858    2.3072   -3.6983 C   0  0  0  0  0  0  0  0  0  0  0  0
   -2.3292    1.9772   -2.6408 C   0  0  0  0  0  0  0  0  0  0  0  0
   -1.0614    2.5670   -2.6331 O   0  0  0  0  0  0  0  0  0  0  0  0
   -4.5044   -0.3512   -0.8323 O   0  0  0  0  0  3  0  0  0  0  0  0
   -3.7817   -0.7384    0.2147 C   0  0  0  0  0  0  0  0  0  0  0  0
   -4.3799   -1.7154    1.1532 C   0  0  0  0  0  0  0  0  0  0  0  0
   -5.7320   -1.5911    1.5114 C   0  0  0  0  0  0  0  0  0  0  0  0
   -6.3327   -2.5160    2.3891 C   0  0  0  0  0  0  0  0  0  0  0  0
   -7.6786   -2.4085    2.7748 O   0  0  0  0  0  0  0  0  0  0  0  0
   -8.5654   -1.3840    2.3370 C   0  0  0  0  0  0  0  0  0  0  0  0
   -5.5649   -3.5804    2.8954 C   0  0  0  0  0  0  0  0  0  0  0  0
   -6.1184   -4.5172    3.7681 O   0  0  0  0  0  0  0  0  0  0  0  0
   -4.2248   -3.7161    2.5221 C   0  0  0  0  0  0  0  0  0  0  0  0
   -3.6360   -2.7972    1.6523 C   0  0  0  0  0  0  0  0  0  0  0  0
   -0.0277   -0.7199    3.2279 C   0  0  2  0  0  0  0  0  0  0  0  0
   -0.9102   -0.2936    4.2364 O   0  0  0  0  0  0  0  0  0  0  0  0
    1.4246   -0.3181    3.5568 C   0  0  1  0  0  0  0  0  0  0  0  0
    1.8691   -1.0056    4.6976 O   0  0  0  0  0  0  0  0  0  0  0  0
    2.3461   -0.6561    2.3684 C   0  0  2  0  0  0  0  0  0  0  0  0
    3.6424   -0.1609    2.5989 O   0  0  0  0  0  0  0  0  0  0  0  0
    4.2344    1.0516   -2.3875 C   0  0  2  0  0  0  0  0  0  0  0  0
    3.2253    0.6179   -3.2665 O   0  0  0  0  0  0  0  0  0  0  0  0
    5.4901    1.5129   -3.1605 C   0  0  2  0  0  0  0  0  0  0  0  0
    5.9522    0.5116   -4.0371 O   0  0  0  0  0  0  0  0  0  0  0  0
    6.6086    1.9616   -2.1844 C   0  0  1  0  0  0  0  0  0  0  0  0
    6.5224    3.3518   -1.9947 O   0  0  0  0  0  0  0  0  0  0  0  0
    5.8196    1.8364   -0.1379 H   0  0  0  0  0  0  0  0  0  0  0  0
    8.2670    2.1482    0.0544 H   0  0  0  0  0  0  0  0  0  0  0  0
    8.5462    0.5409   -0.7313 H   0  0  0  0  0  0  0  0  0  0  0  0
    7.7165    0.6386    0.8674 H   0  0  0  0  0  0  0  0  0  0  0  0
    4.3643   -1.0394   -1.7496 H   0  0  0  0  0  0  0  0  0  0  0  0
    2.7556   -1.5923   -0.1656 H   0  0  0  0  0  0  0  0  0  0  0  0
    2.0254   -0.2125   -1.0838 H   0  0  0  0  0  0  0  0  0  0  0  0
    1.7145    1.0154    1.0836 H   0  0  0  0  0  0  0  0  0  0  0  0
   -0.4312    0.9713    1.9055 H   0  0  0  0  0  0  0  0  0  0  0  0
   -1.0126    1.1208   -0.3864 H   0  0  0  0  0  0  0  0  0  0  0  0
   -5.8913    0.4190   -2.8822 H   0  0  0  0  0  0  0  0  0  0  0  0
   -5.0290    2.7290   -5.5663 H   0  0  0  0  0  0  0  0  0  0  0  0
   -2.8499    3.0006   -4.4595 H   0  0  0  0  0  0  0  0  0  0  0  0
   -0.3469    2.3801   -1.9449 H   0  0  0  0  0  0  0  0  0  0  0  0
   -6.3058   -0.7647    1.1131 H   0  0  0  0  0  0  0  0  0  0  0  0
   -8.6743   -1.4193    1.2324 H   0  0  0  0  0  0  0  0  0  0  0  0
   -8.1859   -0.3894    2.6533 H   0  0  0  0  0  0  0  0  0  0  0  0
   -9.5616   -1.5463    2.7971 H   0  0  0  0  0  0  0  0  0  0  0  0
   -7.0837   -4.4686    4.0711 H   0  0  0  0  0  0  0  0  0  0  0  0
   -3.6392   -4.5436    2.9021 H   0  0  0  0  0  0  0  0  0  0  0  0
   -2.6064   -2.9473    1.3535 H   0  0  0  0  0  0  0  0  0  0  0  0
   -0.0847   -1.8298    3.1689 H   0  0  0  0  0  0  0  0  0  0  0  0
   -0.8690    0.6979    4.2741 H   0  0  0  0  0  0  0  0  0  0  0  0
    1.4689    0.7830    3.7358 H   0  0  0  0  0  0  0  0  0  0  0  0
    1.4762   -0.5430    5.4833 H   0  0  0  0  0  0  0  0  0  0  0  0
    2.4125   -1.7639    2.2835 H   0  0  0  0  0  0  0  0  0  0  0  0
    3.5839    0.8298    2.6371 H   0  0  0  0  0  0  0  0  0  0  0  0
    3.8404    1.9469   -1.8563 H   0  0  0  0  0  0  0  0  0  0  0  0
    3.5526   -0.1962   -3.7299 H   0  0  0  0  0  0  0  0  0  0  0  0
    5.1987    2.3807   -3.7931 H   0  0  0  0  0  0  0  0  0  0  0  0
    6.2747   -0.2527   -3.4935 H   0  0  0  0  0  0  0  0  0  0  0  0
    7.5896    1.7162   -2.6583 H   0  0  0  0  0  0  0  0  0  0  0  0
    7.4126    3.6577   -1.6799 H   0  0  0  0  0  0  0  0  0  0  0  0
  1  2  1  0
  1  3  1  0
  3  4  1  0
  4  5  1  0
  5  6  1  0
  6  7  1  0
  7  8  1  0
  8  9  1  0
  9 10  1  0
 10 11  1  0
 11 12  2  0
 12 13  1  0
 13 14  2  0
 14 15  1  0
 15 16  2  0
 16 17  1  0
 16 18  1  0
 18 19  2  0
 19 20  1  0
 14 21  1  0
 21 22  2  0
 22 23  1  0
 23 24  2  0
 24 25  1  0
 25 26  1  0
 26 27  1  0
 25 28  2  0
 28 29  1  0
 28 30  1  0
 30 31  2  0
  9 32  1  0
 32 33  1  0
 32 34  1  0
 34 35  1  0
 34 36  1  0
 36 37  1  0
  4 38  1  0
 38 39  1  0
 38 40  1  0
 40 41  1  0
 40 42  1  0
 42 43  1  0
 42  1  1  0
 36  7  1  0
 22 11  1  0
 31 23  1  0
 19 13  1  0
  1 44  1  1
  2 45  1  0
  2 46  1  0
  2 47  1  0
  4 48  1  6
  6 49  1  0
  6 50  1  0
  7 51  1  1
  9 52  1  1
 12 53  1  0
 15 54  1  0
 17 55  1  0
 18 56  1  0
 20 57  1  0
 24 58  1  0
 27 59  1  0
 27 60  1  0
 27 61  1  0
 29 62  1  0
 30 63  1  0
 31 64  1  0
 32 65  1  6
 33 66  1  0
 34 67  1  1
 35 68  1  0
 36 69  1  6
 37 70  1  0
 38 71  1  1
 39 72  1  0
 40 73  1  6
 41 74  1  0
 42 75  1  6
 43 76  1  0
M  CHG  1  21   1
M  END
>  <LIG_ID>  (12) 
11

>  <_smiles>  (12) 
[H][C@@]1(C)O[C@@]([H])(OC[C@@]2([H])O[C@@]([H])(OC3=CC4=C(C=C(O)C=C4O)[O+]=C3C3=CC(OC)=C(O)C=C3)[C@]([H])(O)[C@@]([H])(O)[C@]2([H])O)[C@]([H])(O)[C@]([H])(O)[C@@]1([H])O

>  <_name>  (12) 
Peonidin 3-O-rutinoside

>  <_molecular_weight>  (12) 
609.553

>  <_formula>  (12) 
C28H33O15

>  <_logP>  (12) 
-0.4632000000000004

>  <_molecular_wt_calculated>  (12) 
609.5570000000016

>  <_havy_atom_count>  (12) 
43

>  <_hydrogen_acceptors>  (12) 
14

>  <_hydrogen_donors>  (12) 
9

>  <_rotatable_bonds>  (12) 
18

>  <_amide_bonds>  (12) 
0

>  <_ring_count>  (12) 
5

$$$$
Pelargonidin 3-O-rutinoside
     RDKit          3D

 72 76  0  0  0  0  0  0  0  0999 V2000
    6.1836   -1.9318   -0.7067 C   0  0  0  0  0  0  0  0  0  0  0  0
    4.7355   -1.4573   -0.5710 C   0  0  2  0  0  0  0  0  0  0  0  0
    3.8857   -2.5051   -1.0184 O   0  0  0  0  0  0  0  0  0  0  0  0
    2.5136   -2.1874   -0.8403 C   0  0  1  0  0  0  0  0  0  0  0  0
    2.2404   -1.9601    0.5360 O   0  0  0  0  0  0  0  0  0  0  0  0
    0.9302   -2.3673    0.8747 C   0  0  0  0  0  0  0  0  0  0  0  0
    0.6188   -1.9081    2.3041 C   0  0  1  0  0  0  0  0  0  0  0  0
    0.9275   -0.5244    2.4591 O   0  0  0  0  0  0  0  0  0  0  0  0
   -0.1922    0.3417    2.3691 C   0  0  1  0  0  0  0  0  0  0  0  0
   -0.7943    0.2620    1.0681 O   0  0  0  0  0  0  0  0  0  0  0  0
   -1.6049    1.2553    0.4779 C   0  0  0  0  0  0  0  0  0  0  0  0
   -1.9135    2.4628    1.1307 C   0  0  0  0  0  0  0  0  0  0  0  0
   -2.6590    3.4562    0.4744 C   0  0  0  0  0  0  0  0  0  0  0  0
   -2.9966    4.7009    1.0694 C   0  0  0  0  0  0  0  0  0  0  0  0
   -2.6363    5.0506    2.3744 O   0  0  0  0  0  0  0  0  0  0  0  0
   -3.7275    5.6403    0.3315 C   0  0  0  0  0  0  0  0  0  0  0  0
   -4.1308    5.3690   -0.9774 C   0  0  0  0  0  0  0  0  0  0  0  0
   -4.8565    6.3249   -1.6848 O   0  0  0  0  0  0  0  0  0  0  0  0
   -3.8053    4.1434   -1.5653 C   0  0  0  0  0  0  0  0  0  0  0  0
   -3.0768    3.1897   -0.8498 C   0  0  0  0  0  0  0  0  0  0  0  0
   -2.7891    2.0305   -1.4282 O   0  0  0  0  0  3  0  0  0  0  0  0
   -2.1031    1.0646   -0.8260 C   0  0  0  0  0  0  0  0  0  0  0  0
   -1.8846   -0.1912   -1.5663 C   0  0  0  0  0  0  0  0  0  0  0  0
   -1.4120   -0.1499   -2.8870 C   0  0  0  0  0  0  0  0  0  0  0  0
   -1.2219   -1.3347   -3.6043 C   0  0  0  0  0  0  0  0  0  0  0  0
   -1.5135   -2.5708   -3.0116 C   0  0  0  0  0  0  0  0  0  0  0  0
   -1.3115   -3.7588   -3.7102 O   0  0  0  0  0  0  0  0  0  0  0  0
   -2.0168   -2.6132   -1.7077 C   0  0  0  0  0  0  0  0  0  0  0  0
   -2.2156   -1.4286   -0.9927 C   0  0  0  0  0  0  0  0  0  0  0  0
   -1.2310    0.0630    3.4908 C   0  0  2  0  0  0  0  0  0  0  0  0
   -0.9548    0.8628    4.6128 O   0  0  0  0  0  0  0  0  0  0  0  0
   -1.2307   -1.4153    3.9267 C   0  0  1  0  0  0  0  0  0  0  0  0
   -2.5157   -1.7674    4.3738 O   0  0  0  0  0  0  0  0  0  0  0  0
   -0.8101   -2.3124    2.7588 C   0  0  2  0  0  0  0  0  0  0  0  0
   -0.8235   -3.6558    3.1709 O   0  0  0  0  0  0  0  0  0  0  0  0
    2.1332   -0.9575   -1.6970 C   0  0  2  0  0  0  0  0  0  0  0  0
    2.3002   -1.2540   -3.0609 O   0  0  0  0  0  0  0  0  0  0  0  0
    3.0186    0.2364   -1.3182 C   0  0  2  0  0  0  0  0  0  0  0  0
    2.7594    1.3047   -2.1929 O   0  0  0  0  0  0  0  0  0  0  0  0
    4.5029   -0.1620   -1.3868 C   0  0  1  0  0  0  0  0  0  0  0  0
    5.2795    0.8854   -0.8609 O   0  0  0  0  0  0  0  0  0  0  0  0
    6.8843   -1.1793   -0.2872 H   0  0  0  0  0  0  0  0  0  0  0  0
    6.4358   -2.1123   -1.7736 H   0  0  0  0  0  0  0  0  0  0  0  0
    6.3207   -2.8803   -0.1451 H   0  0  0  0  0  0  0  0  0  0  0  0
    4.5668   -1.2514    0.5110 H   0  0  0  0  0  0  0  0  0  0  0  0
    1.9413   -3.0643   -1.2272 H   0  0  0  0  0  0  0  0  0  0  0  0
    0.8581   -3.4768    0.8263 H   0  0  0  0  0  0  0  0  0  0  0  0
    0.1833   -1.9312    0.1827 H   0  0  0  0  0  0  0  0  0  0  0  0
    1.3293   -2.4502    2.9675 H   0  0  0  0  0  0  0  0  0  0  0  0
    0.2179    1.3657    2.4978 H   0  0  0  0  0  0  0  0  0  0  0  0
   -1.5641    2.6201    2.1329 H   0  0  0  0  0  0  0  0  0  0  0  0
   -2.1255    4.4535    3.0079 H   0  0  0  0  0  0  0  0  0  0  0  0
   -3.9852    6.5911    0.7816 H   0  0  0  0  0  0  0  0  0  0  0  0
   -5.1646    6.1595   -2.6359 H   0  0  0  0  0  0  0  0  0  0  0  0
   -4.1199    3.9296   -2.5795 H   0  0  0  0  0  0  0  0  0  0  0  0
   -1.1742    0.7977   -3.3549 H   0  0  0  0  0  0  0  0  0  0  0  0
   -0.8406   -1.2916   -4.6164 H   0  0  0  0  0  0  0  0  0  0  0  0
   -0.9465   -3.7612   -4.6555 H   0  0  0  0  0  0  0  0  0  0  0  0
   -2.2595   -3.5637   -1.2500 H   0  0  0  0  0  0  0  0  0  0  0  0
   -2.6392   -1.4743    0.0013 H   0  0  0  0  0  0  0  0  0  0  0  0
   -2.2475    0.3121    3.1029 H   0  0  0  0  0  0  0  0  0  0  0  0
   -1.3042    1.7709    4.4163 H   0  0  0  0  0  0  0  0  0  0  0  0
   -0.4924   -1.5463    4.7555 H   0  0  0  0  0  0  0  0  0  0  0  0
   -2.4098   -2.5486    4.9775 H   0  0  0  0  0  0  0  0  0  0  0  0
   -1.5406   -2.1666    1.9310 H   0  0  0  0  0  0  0  0  0  0  0  0
   -0.9083   -4.2084    2.3508 H   0  0  0  0  0  0  0  0  0  0  0  0
    1.0741   -0.6743   -1.5104 H   0  0  0  0  0  0  0  0  0  0  0  0
    1.5722   -1.8804   -3.3104 H   0  0  0  0  0  0  0  0  0  0  0  0
    2.7652    0.5389   -0.2733 H   0  0  0  0  0  0  0  0  0  0  0  0
    3.0753    2.1306   -1.7415 H   0  0  0  0  0  0  0  0  0  0  0  0
    4.7673   -0.3476   -2.4565 H   0  0  0  0  0  0  0  0  0  0  0  0
    6.1287    0.9074   -1.3745 H   0  0  0  0  0  0  0  0  0  0  0  0
  1  2  1  0
  2  3  1  0
  3  4  1  0
  4  5  1  0
  5  6  1  0
  6  7  1  0
  7  8  1  0
  8  9  1  0
  9 10  1  0
 10 11  1  0
 11 12  2  0
 12 13  1  0
 13 14  2  0
 14 15  1  0
 14 16  1  0
 16 17  2  0
 17 18  1  0
 17 19  1  0
 19 20  2  0
 20 21  1  0
 21 22  2  0
 22 23  1  0
 23 24  2  0
 24 25  1  0
 25 26  2  0
 26 27  1  0
 26 28  1  0
 28 29  2  0
  9 30  1  0
 30 31  1  0
 30 32  1  0
 32 33  1  0
 32 34  1  0
 34 35  1  0
  4 36  1  0
 36 37  1  0
 36 38  1  0
 38 39  1  0
 38 40  1  0
 40 41  1  0
 40  2  1  0
 34  7  1  0
 22 11  1  0
 29 23  1  0
 20 13  1  0
  1 42  1  0
  1 43  1  0
  1 44  1  0
  2 45  1  1
  4 46  1  6
  6 47  1  0
  6 48  1  0
  7 49  1  1
  9 50  1  1
 12 51  1  0
 15 52  1  0
 16 53  1  0
 18 54  1  0
 19 55  1  0
 24 56  1  0
 25 57  1  0
 27 58  1  0
 28 59  1  0
 29 60  1  0
 30 61  1  6
 31 62  1  0
 32 63  1  1
 33 64  1  0
 34 65  1  6
 35 66  1  0
 36 67  1  6
 37 68  1  0
 38 69  1  1
 39 70  1  0
 40 71  1  6
 41 72  1  0
M  CHG  1  21   1
M  END
>  <LIG_ID>  (13) 
12

>  <_smiles>  (13) 
C[C@@H]1O[C@@H](OC[C@H]2O[C@@H](OC3=CC4=C(O)C=C(O)C=C4[O+]=C3C3=CC=C(O)C=C3)[C@H](O)[C@@H](O)[C@@H]2O)[C@H](O)[C@H](O)[C@H]1O

>  <_name>  (13) 
Pelargonidin 3-O-rutinoside

>  <_molecular_weight>  (13) 
579.527

>  <_formula>  (13) 
C27H31O14

>  <_logP>  (13) 
-0.47180000000000055

>  <_molecular_wt_calculated>  (13) 
579.5310000000015

>  <_havy_atom_count>  (13) 
41

>  <_hydrogen_acceptors>  (13) 
13

>  <_hydrogen_donors>  (13) 
9

>  <_rotatable_bonds>  (13) 
16

>  <_amide_bonds>  (13) 
0

>  <_ring_count>  (13) 
5

$$$$
Pelargonidin
     RDKit          3D

 31 33  0  0  0  0  0  0  0  0999 V2000
    6.0423   -1.0305    0.2907 O   0  0  0  0  0  0  0  0  0  0  0  0
    4.6879   -0.7114    0.2270 C   0  0  0  0  0  0  0  0  0  0  0  0
    3.7481   -1.4315    0.9757 C   0  0  0  0  0  0  0  0  0  0  0  0
    2.3912   -1.1018    0.9040 C   0  0  0  0  0  0  0  0  0  0  0  0
    1.9589   -0.0379    0.0945 C   0  0  0  0  0  0  0  0  0  0  0  0
    2.9065    0.6678   -0.6697 C   0  0  0  0  0  0  0  0  0  0  0  0
    4.2627    0.3351   -0.5966 C   0  0  0  0  0  0  0  0  0  0  0  0
    0.5144    0.2780    0.0169 C   0  0  0  0  0  0  0  0  0  0  0  0
   -0.3498   -0.7329   -0.0171 O   0  0  0  0  0  3  0  0  0  0  0  0
   -1.6659   -0.5659   -0.0954 C   0  0  0  0  0  0  0  0  0  0  0  0
   -2.2264    0.7332   -0.1464 C   0  0  0  0  0  0  0  0  0  0  0  0
   -1.3408    1.8221   -0.0959 C   0  0  0  0  0  0  0  0  0  0  0  0
    0.0367    1.6017   -0.0032 C   0  0  0  0  0  0  0  0  0  0  0  0
    0.9129    2.6825    0.0975 O   0  0  0  0  0  0  0  0  0  0  0  0
   -3.6354    0.8769   -0.2357 C   0  0  0  0  0  0  0  0  0  0  0  0
   -4.2751    2.1184   -0.2963 O   0  0  0  0  0  0  0  0  0  0  0  0
   -4.4429   -0.2668   -0.2672 C   0  0  0  0  0  0  0  0  0  0  0  0
   -3.8784   -1.5463   -0.2139 C   0  0  0  0  0  0  0  0  0  0  0  0
   -4.6867   -2.6805   -0.2456 O   0  0  0  0  0  0  0  0  0  0  0  0
   -2.4934   -1.6913   -0.1288 C   0  0  0  0  0  0  0  0  0  0  0  0
    6.3817   -1.7843    0.8768 H   0  0  0  0  0  0  0  0  0  0  0  0
    4.0672   -2.2474    1.6116 H   0  0  0  0  0  0  0  0  0  0  0  0
    1.6792   -1.6699    1.4902 H   0  0  0  0  0  0  0  0  0  0  0  0
    2.5991    1.4580   -1.3422 H   0  0  0  0  0  0  0  0  0  0  0  0
    4.9833    0.8858   -1.1880 H   0  0  0  0  0  0  0  0  0  0  0  0
   -1.6888    2.8428   -0.1114 H   0  0  0  0  0  0  0  0  0  0  0  0
    0.5806    3.6397    0.0929 H   0  0  0  0  0  0  0  0  0  0  0  0
   -3.7967    3.0073   -0.2935 H   0  0  0  0  0  0  0  0  0  0  0  0
   -5.5183   -0.1579   -0.3346 H   0  0  0  0  0  0  0  0  0  0  0  0
   -5.6957   -2.6106   -0.3072 H   0  0  0  0  0  0  0  0  0  0  0  0
   -2.0583   -2.6824   -0.0888 H   0  0  0  0  0  0  0  0  0  0  0  0
  1  2  1  0
  2  3  2  0
  3  4  1  0
  4  5  2  0
  5  6  1  0
  6  7  2  0
  5  8  1  0
  8  9  2  0
  9 10  1  0
 10 11  2  0
 11 12  1  0
 12 13  2  0
 13 14  1  0
 11 15  1  0
 15 16  1  0
 15 17  2  0
 17 18  1  0
 18 19  1  0
 18 20  2  0
  7  2  1  0
 13  8  1  0
 20 10  1  0
  1 21  1  0
  3 22  1  0
  4 23  1  0
  6 24  1  0
  7 25  1  0
 12 26  1  0
 14 27  1  0
 16 28  1  0
 17 29  1  0
 19 30  1  0
 20 31  1  0
M  CHG  1   9   1
M  END
>  <LIG_ID>  (14) 
13

>  <_smiles>  (14) 
OC1=CC=C(C=C1)C1=[O+]C2=C(C=C1O)C(O)=CC(O)=C2

>  <_name>  (14) 
Pelargonidin

>  <_molecular_weight>  (14) 
271.245

>  <_formula>  (14) 
C15H11O5

>  <_logP>  (14) 
3.2033000000000005

>  <_molecular_wt_calculated>  (14) 
271.24799999999976

>  <_havy_atom_count>  (14) 
20

>  <_hydrogen_acceptors>  (14) 
4

>  <_hydrogen_donors>  (14) 
4

>  <_rotatable_bonds>  (14) 
5

>  <_amide_bonds>  (14) 
0

>  <_ring_count>  (14) 
3

$$$$
Cyanidin
     RDKit          3D

 32 34  0  0  0  0  0  0  0  0999 V2000
    4.9816   -2.5439    0.2294 O   0  0  0  0  0  0  0  0  0  0  0  0
    4.1346   -1.4472    0.0860 C   0  0  0  0  0  0  0  0  0  0  0  0
    4.6785   -0.1639   -0.0005 C   0  0  0  0  0  0  0  0  0  0  0  0
    3.8546    0.9593   -0.1451 C   0  0  0  0  0  0  0  0  0  0  0  0
    4.4765    2.2089   -0.2194 O   0  0  0  0  0  0  0  0  0  0  0  0
    2.4473    0.7879   -0.2075 C   0  0  0  0  0  0  0  0  0  0  0  0
    1.5465    1.8529   -0.3707 C   0  0  0  0  0  0  0  0  0  0  0  0
    0.1742    1.6089   -0.4365 C   0  0  0  0  0  0  0  0  0  0  0  0
   -0.6851    2.6835   -0.6753 O   0  0  0  0  0  0  0  0  0  0  0  0
   -0.2868    0.2829   -0.2949 C   0  0  0  0  0  0  0  0  0  0  0  0
    0.5907   -0.7074   -0.1602 O   0  0  0  0  0  3  0  0  0  0  0  0
    1.9050   -0.5163   -0.1155 C   0  0  0  0  0  0  0  0  0  0  0  0
    2.7485   -1.6209    0.0292 C   0  0  0  0  0  0  0  0  0  0  0  0
   -1.7225   -0.0617   -0.2860 C   0  0  0  0  0  0  0  0  0  0  0  0
   -2.6135    0.5804    0.5905 C   0  0  0  0  0  0  0  0  0  0  0  0
   -3.9673    0.2154    0.6192 C   0  0  0  0  0  0  0  0  0  0  0  0
   -4.8538    0.8609    1.4794 O   0  0  0  0  0  0  0  0  0  0  0  0
   -4.4325   -0.8069   -0.2179 C   0  0  0  0  0  0  0  0  0  0  0  0
   -5.7790   -1.1654   -0.1891 O   0  0  0  0  0  0  0  0  0  0  0  0
   -3.5408   -1.4657   -1.0751 C   0  0  0  0  0  0  0  0  0  0  0  0
   -2.1918   -1.1015   -1.1022 C   0  0  0  0  0  0  0  0  0  0  0  0
    4.6196   -3.4881    0.2954 H   0  0  0  0  0  0  0  0  0  0  0  0
    5.7531   -0.0368    0.0462 H   0  0  0  0  0  0  0  0  0  0  0  0
    3.9847    3.0862   -0.3062 H   0  0  0  0  0  0  0  0  0  0  0  0
    1.8784    2.8740   -0.4751 H   0  0  0  0  0  0  0  0  0  0  0  0
   -1.6721    2.5687   -0.8644 H   0  0  0  0  0  0  0  0  0  0  0  0
    2.3246   -2.6153    0.0984 H   0  0  0  0  0  0  0  0  0  0  0  0
   -2.2554    1.3558    1.2569 H   0  0  0  0  0  0  0  0  0  0  0  0
   -4.5473    1.6035    2.0971 H   0  0  0  0  0  0  0  0  0  0  0  0
   -6.1441   -1.9017   -0.7819 H   0  0  0  0  0  0  0  0  0  0  0  0
   -3.8917   -2.2622   -1.7189 H   0  0  0  0  0  0  0  0  0  0  0  0
   -1.5148   -1.6242   -1.7671 H   0  0  0  0  0  0  0  0  0  0  0  0
  1  2  1  0
  2  3  2  0
  3  4  1  0
  4  5  1  0
  4  6  2  0
  6  7  1  0
  7  8  2  0
  8  9  1  0
  8 10  1  0
 10 11  2  0
 11 12  1  0
 12 13  2  0
 10 14  1  0
 14 15  2  0
 15 16  1  0
 16 17  1  0
 16 18  2  0
 18 19  1  0
 18 20  1  0
 20 21  2  0
 13  2  1  0
 21 14  1  0
 12  6  1  0
  1 22  1  0
  3 23  1  0
  5 24  1  0
  7 25  1  0
  9 26  1  0
 13 27  1  0
 15 28  1  0
 17 29  1  0
 19 30  1  0
 20 31  1  0
 21 32  1  0
M  CHG  1  11   1
M  END
>  <LIG_ID>  (15) 
14

>  <_smiles>  (15) 
OC1=CC(O)=C2C=C(O)C(=[O+]C2=C1)C1=CC(O)=C(O)C=C1

>  <_name>  (15) 
Cyanidin

>  <_molecular_weight>  (15) 
287.244

>  <_formula>  (15) 
C15H11O6

>  <_logP>  (15) 
2.9089

>  <_molecular_wt_calculated>  (15) 
287.2469999999998

>  <_havy_atom_count>  (15) 
21

>  <_hydrogen_acceptors>  (15) 
5

>  <_hydrogen_donors>  (15) 
5

>  <_rotatable_bonds>  (15) 
6

>  <_amide_bonds>  (15) 
0

>  <_ring_count>  (15) 
3

$$$$
Malvidin 3,5-O-diglucoside
     RDKit          3D

 81 85  0  0  0  0  0  0  0  0999 V2000
   -6.4730    0.1668    0.0540 C   0  0  0  0  0  0  0  0  0  0  0  0
   -6.4739    1.5909    0.0159 O   0  0  0  0  0  0  0  0  0  0  0  0
   -5.3278    2.3905    0.1542 C   0  0  0  0  0  0  0  0  0  0  0  0
   -4.0575    1.8370    0.3901 C   0  0  0  0  0  0  0  0  0  0  0  0
   -2.9250    2.6598    0.4924 C   0  0  0  0  0  0  0  0  0  0  0  0
   -3.0787    4.0506    0.4096 C   0  0  0  0  0  0  0  0  0  0  0  0
   -4.3457    4.6217    0.1853 C   0  0  0  0  0  0  0  0  0  0  0  0
   -4.5261    6.0110    0.0875 O   0  0  0  0  0  0  0  0  0  0  0  0
   -3.4820    6.9725    0.2027 C   0  0  0  0  0  0  0  0  0  0  0  0
   -5.4667    3.7817    0.0527 C   0  0  0  0  0  0  0  0  0  0  0  0
   -6.7349    4.3168   -0.1792 O   0  0  0  0  0  0  0  0  0  0  0  0
   -1.5814    2.0857    0.7366 C   0  0  0  0  0  0  0  0  0  0  0  0
   -1.1293    0.9358    0.0553 C   0  0  0  0  0  0  0  0  0  0  0  0
   -1.9466    0.3502   -0.9279 O   0  0  0  0  0  0  0  0  0  0  0  0
   -1.8171   -0.9683   -1.4639 C   0  0  2  0  0  0  0  0  0  0  0  0
   -2.6876   -1.0675   -2.5734 O   0  0  0  0  0  0  0  0  0  0  0  0
   -2.3883   -2.2217   -3.3432 C   0  0  2  0  0  0  0  0  0  0  0  0
   -3.4057   -2.2998   -4.4901 C   0  0  0  0  0  0  0  0  0  0  0  0
   -3.0149   -3.2672   -5.4298 O   0  0  0  0  0  0  0  0  0  0  0  0
   -2.3968   -3.5302   -2.4782 C   0  0  1  0  0  0  0  0  0  0  0  0
   -1.1364   -4.1567   -2.4793 O   0  0  0  0  0  0  0  0  0  0  0  0
   -2.8817   -3.2738   -1.0294 C   0  0  2  0  0  0  0  0  0  0  0  0
   -4.2784   -3.1040   -1.0363 O   0  0  0  0  0  0  0  0  0  0  0  0
   -2.2323   -2.0141   -0.3971 C   0  0  1  0  0  0  0  0  0  0  0  0
   -1.1527   -2.3578    0.4357 O   0  0  0  0  0  0  0  0  0  0  0  0
    0.1490    0.4430    0.3602 C   0  0  0  0  0  0  0  0  0  0  0  0
    0.9421    1.0930    1.3136 C   0  0  0  0  0  0  0  0  0  0  0  0
    2.2282    0.6259    1.6532 C   0  0  0  0  0  0  0  0  0  0  0  0
    2.7208   -0.5325    1.0271 O   0  0  0  0  0  0  0  0  0  0  0  0
    3.9999   -1.1166    1.2651 C   0  0  2  0  0  0  0  0  0  0  0  0
    5.0050   -0.2247    0.8157 O   0  0  0  0  0  0  0  0  0  0  0  0
    6.2927   -0.7097    1.1581 C   0  0  2  0  0  0  0  0  0  0  0  0
    7.3146    0.3872    0.8157 C   0  0  0  0  0  0  0  0  0  0  0  0
    8.5934    0.0584    1.2886 O   0  0  0  0  0  0  0  0  0  0  0  0
    6.5887   -2.0210    0.3889 C   0  0  1  0  0  0  0  0  0  0  0  0
    7.8338   -2.5371    0.7844 O   0  0  0  0  0  0  0  0  0  0  0  0
    5.4841   -3.0574    0.6867 C   0  0  2  0  0  0  0  0  0  0  0  0
    5.6427   -4.2038   -0.1124 O   0  0  0  0  0  0  0  0  0  0  0  0
    4.0863   -2.4386    0.4889 C   0  0  1  0  0  0  0  0  0  0  0  0
    3.0980   -3.3187    0.9585 O   0  0  0  0  0  0  0  0  0  0  0  0
    2.9804    1.3314    2.6143 C   0  0  0  0  0  0  0  0  0  0  0  0
    2.4604    2.4822    3.2220 C   0  0  0  0  0  0  0  0  0  0  0  0
    3.2048    3.1813    4.1697 O   0  0  0  0  0  0  0  0  0  0  0  0
    1.1850    2.9367    2.8796 C   0  0  0  0  0  0  0  0  0  0  0  0
    0.4229    2.2488    1.9324 C   0  0  0  0  0  0  0  0  0  0  0  0
   -0.7912    2.6890    1.6222 O   0  0  0  0  0  3  0  0  0  0  0  0
   -5.8213   -0.2373   -0.7498 H   0  0  0  0  0  0  0  0  0  0  0  0
   -6.1215   -0.1887    1.0456 H   0  0  0  0  0  0  0  0  0  0  0  0
   -7.5068   -0.2009   -0.1082 H   0  0  0  0  0  0  0  0  0  0  0  0
   -3.9501    0.7695    0.5158 H   0  0  0  0  0  0  0  0  0  0  0  0
   -2.2047    4.6810    0.5068 H   0  0  0  0  0  0  0  0  0  0  0  0
   -2.7262    6.8131   -0.5951 H   0  0  0  0  0  0  0  0  0  0  0  0
   -3.9112    7.9887    0.0868 H   0  0  0  0  0  0  0  0  0  0  0  0
   -3.0050    6.9003    1.2029 H   0  0  0  0  0  0  0  0  0  0  0  0
   -6.8956    5.3134   -0.2615 H   0  0  0  0  0  0  0  0  0  0  0  0
   -0.7649   -1.1178   -1.7967 H   0  0  0  0  0  0  0  0  0  0  0  0
   -1.3915   -2.0841   -3.8237 H   0  0  0  0  0  0  0  0  0  0  0  0
   -4.4271   -2.5029   -4.0896 H   0  0  0  0  0  0  0  0  0  0  0  0
   -3.4440   -1.3162   -5.0056 H   0  0  0  0  0  0  0  0  0  0  0  0
   -3.5608   -4.0786   -5.2606 H   0  0  0  0  0  0  0  0  0  0  0  0
   -3.0985   -4.2702   -2.9209 H   0  0  0  0  0  0  0  0  0  0  0  0
   -0.4495   -3.4779   -2.2585 H   0  0  0  0  0  0  0  0  0  0  0  0
   -2.6312   -4.1605   -0.3993 H   0  0  0  0  0  0  0  0  0  0  0  0
   -4.6821   -4.0083   -1.1106 H   0  0  0  0  0  0  0  0  0  0  0  0
   -2.9959   -1.5432    0.2612 H   0  0  0  0  0  0  0  0  0  0  0  0
   -0.4646   -2.8025   -0.1208 H   0  0  0  0  0  0  0  0  0  0  0  0
    0.5387   -0.4224   -0.1539 H   0  0  0  0  0  0  0  0  0  0  0  0
    4.0958   -1.3209    2.3579 H   0  0  0  0  0  0  0  0  0  0  0  0
    6.3562   -0.8935    2.2570 H   0  0  0  0  0  0  0  0  0  0  0  0
    7.3633    0.5284   -0.2852 H   0  0  0  0  0  0  0  0  0  0  0  0
    6.9867    1.3555    1.2590 H   0  0  0  0  0  0  0  0  0  0  0  0
    8.5791    0.2014    2.2709 H   0  0  0  0  0  0  0  0  0  0  0  0
    6.5966   -1.7925   -0.7038 H   0  0  0  0  0  0  0  0  0  0  0  0
    8.1332   -3.1503    0.0634 H   0  0  0  0  0  0  0  0  0  0  0  0
    5.5785   -3.3708    1.7508 H   0  0  0  0  0  0  0  0  0  0  0  0
    5.5552   -3.9242   -1.0613 H   0  0  0  0  0  0  0  0  0  0  0  0
    3.9207   -2.2176   -0.5927 H   0  0  0  0  0  0  0  0  0  0  0  0
    2.9607   -4.0003    0.2499 H   0  0  0  0  0  0  0  0  0  0  0  0
    3.9685    0.9974    2.8985 H   0  0  0  0  0  0  0  0  0  0  0  0
    4.1334    2.8803    4.4418 H   0  0  0  0  0  0  0  0  0  0  0  0
    0.7850    3.8252    3.3525 H   0  0  0  0  0  0  0  0  0  0  0  0
  1  2  1  0
  2  3  1  0
  3  4  2  0
  4  5  1  0
  5  6  2  0
  6  7  1  0
  7  8  1  0
  8  9  1  0
  7 10  2  0
 10 11  1  0
  5 12  1  0
 12 13  1  0
 13 14  1  0
 14 15  1  0
 15 16  1  0
 16 17  1  0
 17 18  1  0
 18 19  1  0
 17 20  1  0
 20 21  1  0
 20 22  1  0
 22 23  1  0
 22 24  1  0
 24 25  1  0
 13 26  2  0
 26 27  1  0
 27 28  2  0
 28 29  1  0
 29 30  1  0
 30 31  1  0
 31 32  1  0
 32 33  1  0
 33 34  1  0
 32 35  1  0
 35 36  1  0
 35 37  1  0
 37 38  1  0
 37 39  1  0
 39 40  1  0
 28 41  1  0
 41 42  2  0
 42 43  1  0
 42 44  1  0
 44 45  2  0
 45 46  1  0
 10  3  1  0
 46 12  2  0
 24 15  1  0
 45 27  1  0
 39 30  1  0
  1 47  1  0
  1 48  1  0
  1 49  1  0
  4 50  1  0
  6 51  1  0
  9 52  1  0
  9 53  1  0
  9 54  1  0
 11 55  1  0
 15 56  1  6
 17 57  1  6
 18 58  1  0
 18 59  1  0
 19 60  1  0
 20 61  1  6
 21 62  1  0
 22 63  1  1
 23 64  1  0
 24 65  1  1
 25 66  1  0
 26 67  1  0
 30 68  1  1
 32 69  1  1
 33 70  1  0
 33 71  1  0
 34 72  1  0
 35 73  1  6
 36 74  1  0
 37 75  1  1
 38 76  1  0
 39 77  1  6
 40 78  1  0
 41 79  1  0
 43 80  1  0
 44 81  1  0
M  CHG  1  46   1
M  END
>  <LIG_ID>  (16) 
15

>  <_smiles>  (16) 
COC1=CC(=CC(OC)=C1O)C1=C(O[C@@H]2O[C@H](CO)[C@@H](O)[C@H](O)[C@H]2O)C=C2C(O[C@@H]3O[C@H](CO)[C@@H](O)[C@H](O)[C@H]3O)=CC(O)=CC2=[O+]1

>  <_name>  (16) 
Malvidin 3,5-O-diglucoside

>  <_molecular_weight>  (16) 
655.578

>  <_formula>  (16) 
C29H35O17

>  <_logP>  (16) 
-1.8333000000000004

>  <_molecular_wt_calculated>  (16) 
655.5820000000016

>  <_havy_atom_count>  (16) 
46

>  <_hydrogen_acceptors>  (16) 
16

>  <_hydrogen_donors>  (16) 
10

>  <_rotatable_bonds>  (16) 
21

>  <_amide_bonds>  (16) 
0

>  <_ring_count>  (16) 
5

$$$$
Cyanidin 3-O-glucosyl-rutinoside
     RDKit          3D

 94 99  0  0  0  0  0  0  0  0999 V2000
    5.2061   -0.9397    4.7841 C   0  0  0  0  0  0  0  0  0  0  0  0
    5.1360   -0.6972    3.2760 C   0  0  0  0  0  0  0  0  0  0  0  0
    3.7676   -0.7195    2.8907 O   0  0  0  0  0  0  0  0  0  0  0  0
    3.6470   -0.7070    1.4793 C   0  0  0  0  0  0  0  0  0  0  0  0
    2.3086   -0.4265    1.1176 O   0  0  0  0  0  0  0  0  0  0  0  0
    2.0019    0.9293    1.3767 C   0  0  0  0  0  0  0  0  0  0  0  0
    0.5525    1.1971    0.9659 C   0  0  0  0  0  0  0  0  0  0  0  0
    0.4267    1.0008   -0.4294 O   0  0  0  0  0  0  0  0  0  0  0  0
   -0.9436    0.8852   -0.7893 C   0  0  0  0  0  0  0  0  0  0  0  0
   -1.0554    0.8902   -2.2152 O   0  0  0  0  0  0  0  0  0  0  0  0
   -0.1800    0.2179   -3.0834 C   0  0  0  0  0  0  0  0  0  0  0  0
    0.3301    0.9248   -4.1733 C   0  0  0  0  0  0  0  0  0  0  0  0
    1.2913    0.3389   -5.0128 C   0  0  0  0  0  0  0  0  0  0  0  0
    1.8747    1.0109   -6.1181 C   0  0  0  0  0  0  0  0  0  0  0  0
    1.5251    2.3112   -6.4935 O   0  0  0  0  0  0  0  0  0  0  0  0
    2.8482    0.3579   -6.8842 C   0  0  0  0  0  0  0  0  0  0  0  0
    3.2482   -0.9448   -6.5782 C   0  0  0  0  0  0  0  0  0  0  0  0
    4.2195   -1.5665   -7.3598 O   0  0  0  0  0  0  0  0  0  0  0  0
    2.6715   -1.6133   -5.4942 C   0  0  0  0  0  0  0  0  0  0  0  0
    1.6990   -0.9828   -4.7139 C   0  0  0  0  0  0  0  0  0  0  0  0
    1.1579   -1.6433   -3.6963 O   0  0  0  0  0  3  0  0  0  0  0  0
    0.2324   -1.1207   -2.8979 C   0  0  0  0  0  0  0  0  0  0  0  0
   -0.3466   -1.9901   -1.8618 C   0  0  0  0  0  0  0  0  0  0  0  0
    0.4913   -2.6157   -0.9302 C   0  0  0  0  0  0  0  0  0  0  0  0
   -0.0513   -3.4235    0.0719 C   0  0  0  0  0  0  0  0  0  0  0  0
   -1.4333   -3.6314    0.1411 C   0  0  0  0  0  0  0  0  0  0  0  0
   -1.9478   -4.4353    1.1576 O   0  0  0  0  0  0  0  0  0  0  0  0
   -2.2781   -3.0330   -0.8102 C   0  0  0  0  0  0  0  0  0  0  0  0
   -3.6546   -3.2444   -0.7538 O   0  0  0  0  0  0  0  0  0  0  0  0
   -1.7307   -2.2220   -1.8147 C   0  0  0  0  0  0  0  0  0  0  0  0
   -1.8186    2.0387   -0.2113 C   0  0  0  0  0  0  0  0  0  0  0  0
   -2.6040    1.5487    0.8637 O   0  0  0  0  0  0  0  0  0  0  0  0
   -3.8593    1.0666    0.4138 C   0  0  0  0  0  0  0  0  0  0  0  0
   -4.7437    2.1486    0.1518 O   0  0  0  0  0  0  0  0  0  0  0  0
   -5.3401    2.7543    1.3006 C   0  0  0  0  0  0  0  0  0  0  0  0
   -6.8676    2.5858    1.2067 C   0  0  0  0  0  0  0  0  0  0  0  0
   -7.5155    3.5063    2.0412 O   0  0  0  0  0  0  0  0  0  0  0  0
   -4.7594    2.3014    2.6762 C   0  0  0  0  0  0  0  0  0  0  0  0
   -5.4833    2.8521    3.7480 O   0  0  0  0  0  0  0  0  0  0  0  0
   -4.6910    0.7611    2.8051 C   0  0  0  0  0  0  0  0  0  0  0  0
   -5.8656    0.2520    3.3912 O   0  0  0  0  0  0  0  0  0  0  0  0
   -4.4385    0.0748    1.4404 C   0  0  0  0  0  0  0  0  0  0  0  0
   -5.6315   -0.4749    0.9374 O   0  0  0  0  0  0  0  0  0  0  0  0
   -0.9262    3.1775    0.3223 C   0  0  0  0  0  0  0  0  0  0  0  0
   -0.2512    3.7924   -0.7472 O   0  0  0  0  0  0  0  0  0  0  0  0
    0.1142    2.6378    1.3364 C   0  0  0  0  0  0  0  0  0  0  0  0
   -0.4311    2.6301    2.6318 O   0  0  0  0  0  0  0  0  0  0  0  0
    4.0210   -2.1038    0.9328 C   0  0  0  0  0  0  0  0  0  0  0  0
    4.3973   -2.0237   -0.4209 O   0  0  0  0  0  0  0  0  0  0  0  0
    5.1123   -2.7835    1.8060 C   0  0  0  0  0  0  0  0  0  0  0  0
    5.9012   -3.6618    1.0446 O   0  0  0  0  0  0  0  0  0  0  0  0
    6.0076   -1.7462    2.5064 C   0  0  0  0  0  0  0  0  0  0  0  0
    6.8087   -1.0976    1.5512 O   0  0  0  0  0  0  0  0  0  0  0  0
    6.2543   -0.8500    5.1413 H   0  0  0  0  0  0  0  0  0  0  0  0
    4.8211   -1.9526    5.0298 H   0  0  0  0  0  0  0  0  0  0  0  0
    4.5893   -0.1848    5.3168 H   0  0  0  0  0  0  0  0  0  0  0  0
    5.5394    0.3269    3.1019 H   0  0  0  0  0  0  0  0  0  0  0  0
    4.3323    0.0537    1.0259 H   0  0  0  0  0  0  0  0  0  0  0  0
    2.6683    1.6033    0.7905 H   0  0  0  0  0  0  0  0  0  0  0  0
    2.1108    1.1541    2.4623 H   0  0  0  0  0  0  0  0  0  0  0  0
   -0.0785    0.4599    1.5211 H   0  0  0  0  0  0  0  0  0  0  0  0
   -1.3358   -0.0766   -0.4046 H   0  0  0  0  0  0  0  0  0  0  0  0
   -0.0077    1.9400   -4.3112 H   0  0  0  0  0  0  0  0  0  0  0  0
    0.8212    2.8682   -6.0315 H   0  0  0  0  0  0  0  0  0  0  0  0
    3.2972    0.8685   -7.7272 H   0  0  0  0  0  0  0  0  0  0  0  0
    4.5318   -2.5107   -7.1652 H   0  0  0  0  0  0  0  0  0  0  0  0
    2.9776   -2.6249   -5.2575 H   0  0  0  0  0  0  0  0  0  0  0  0
    1.5618   -2.4600   -0.9689 H   0  0  0  0  0  0  0  0  0  0  0  0
    0.6035   -3.8875    0.7986 H   0  0  0  0  0  0  0  0  0  0  0  0
   -2.9405   -4.6138    1.2516 H   0  0  0  0  0  0  0  0  0  0  0  0
   -4.2834   -2.8253   -1.4290 H   0  0  0  0  0  0  0  0  0  0  0  0
   -2.3827   -1.7576   -2.5448 H   0  0  0  0  0  0  0  0  0  0  0  0
   -2.4563    2.4780   -1.0173 H   0  0  0  0  0  0  0  0  0  0  0  0
   -3.7382    0.4912   -0.5345 H   0  0  0  0  0  0  0  0  0  0  0  0
   -5.1364    3.8447    1.2163 H   0  0  0  0  0  0  0  0  0  0  0  0
   -7.1866    2.7678    0.1557 H   0  0  0  0  0  0  0  0  0  0  0  0
   -7.1652    1.5516    1.4809 H   0  0  0  0  0  0  0  0  0  0  0  0
   -8.4877    3.3338    1.9407 H   0  0  0  0  0  0  0  0  0  0  0  0
   -3.7143    2.6862    2.7398 H   0  0  0  0  0  0  0  0  0  0  0  0
   -5.2762    3.8232    3.7671 H   0  0  0  0  0  0  0  0  0  0  0  0
   -3.8213    0.5215    3.4643 H   0  0  0  0  0  0  0  0  0  0  0  0
   -5.7626    0.3341    4.3755 H   0  0  0  0  0  0  0  0  0  0  0  0
   -3.6986   -0.7467    1.5968 H   0  0  0  0  0  0  0  0  0  0  0  0
   -5.3760   -1.1458    0.2519 H   0  0  0  0  0  0  0  0  0  0  0  0
   -1.5686    3.9366    0.8289 H   0  0  0  0  0  0  0  0  0  0  0  0
   -0.9134    4.3638   -1.2173 H   0  0  0  0  0  0  0  0  0  0  0  0
    1.0017    3.3154    1.3178 H   0  0  0  0  0  0  0  0  0  0  0  0
   -0.4268    3.5696    2.9530 H   0  0  0  0  0  0  0  0  0  0  0  0
    3.1202   -2.7543    0.9860 H   0  0  0  0  0  0  0  0  0  0  0  0
    5.2323   -1.4906   -0.4729 H   0  0  0  0  0  0  0  0  0  0  0  0
    4.6030   -3.3638    2.6125 H   0  0  0  0  0  0  0  0  0  0  0  0
    5.3245   -4.4376    0.8176 H   0  0  0  0  0  0  0  0  0  0  0  0
    6.6736   -2.3019    3.2094 H   0  0  0  0  0  0  0  0  0  0  0  0
    7.5432   -0.6520    2.0491 H   0  0  0  0  0  0  0  0  0  0  0  0
  1  2  1  0
  2  3  1  0
  3  4  1  0
  4  5  1  0
  5  6  1  0
  6  7  1  0
  7  8  1  0
  8  9  1  0
  9 10  1  0
 10 11  1  0
 11 12  2  0
 12 13  1  0
 13 14  2  0
 14 15  1  0
 14 16  1  0
 16 17  2  0
 17 18  1  0
 17 19  1  0
 19 20  2  0
 20 21  1  0
 21 22  2  0
 22 23  1  0
 23 24  2  0
 24 25  1  0
 25 26  2  0
 26 27  1  0
 26 28  1  0
 28 29  1  0
 28 30  2  0
  9 31  1  0
 31 32  1  0
 32 33  1  0
 33 34  1  0
 34 35  1  0
 35 36  1  0
 36 37  1  0
 35 38  1  0
 38 39  1  0
 38 40  1  0
 40 41  1  0
 40 42  1  0
 42 43  1  0
 31 44  1  0
 44 45  1  0
 44 46  1  0
 46 47  1  0
  4 48  1  0
 48 49  1  0
 48 50  1  0
 50 51  1  0
 50 52  1  0
 52 53  1  0
 52  2  1  0
 46  7  1  0
 22 11  1  0
 30 23  1  0
 42 33  1  0
 20 13  1  0
  1 54  1  0
  1 55  1  0
  1 56  1  0
  2 57  1  0
  4 58  1  0
  6 59  1  0
  6 60  1  0
  7 61  1  0
  9 62  1  0
 12 63  1  0
 15 64  1  0
 16 65  1  0
 18 66  1  0
 19 67  1  0
 24 68  1  0
 25 69  1  0
 27 70  1  0
 29 71  1  0
 30 72  1  0
 31 73  1  0
 33 74  1  0
 35 75  1  0
 36 76  1  0
 36 77  1  0
 37 78  1  0
 38 79  1  0
 39 80  1  0
 40 81  1  0
 41 82  1  0
 42 83  1  0
 43 84  1  0
 44 85  1  0
 45 86  1  0
 46 87  1  0
 47 88  1  0
 48 89  1  0
 49 90  1  0
 50 91  1  0
 51 92  1  0
 52 93  1  0
 53 94  1  0
M  CHG  1  21   1
M  END
>  <LIG_ID>  (17) 
16

>  <_smiles>  (17) 
CC1OC(OCC2OC(OC3=CC4=C(O)C=C(O)C=C4[O+]=C3C3=CC=C(O)C(O)=C3)C(OC3OC(CO)C(O)C(O)C3O)C(O)C2O)C(O)C(O)C1O

>  <_name>  (17) 
Cyanidin 3-O-glucosyl-rutinoside

>  <_molecular_weight>  (17) 
757.667

>  <_formula>  (17) 
C33H41O20

>  <_logP>  (17) 
-2.9419999999999997

>  <_molecular_wt_calculated>  (17) 
757.6710000000019

>  <_havy_atom_count>  (17) 
53

>  <_hydrogen_acceptors>  (17) 
19

>  <_hydrogen_donors>  (17) 
13

>  <_rotatable_bonds>  (17) 
23

>  <_amide_bonds>  (17) 
0

>  <_ring_count>  (17) 
6

$$$$
Pelargonidin 3-O-sophoroside
     RDKit          3D

 73 77  0  0  0  0  0  0  0  0999 V2000
   -3.7669    4.2017   -0.7170 O   0  0  0  0  0  0  0  0  0  0  0  0
   -2.9198    3.3092   -0.0471 C   0  0  0  0  0  0  0  0  0  0  0  0
   -3.5991    1.9423    0.1149 C   0  0  1  0  0  0  0  0  0  0  0  0
   -2.6237    1.0242    0.5774 O   0  0  0  0  0  0  0  0  0  0  0  0
   -3.1434   -0.2955    0.5890 C   0  0  1  0  0  0  0  0  0  0  0  0
   -2.1082   -1.1941    0.9378 O   0  0  0  0  0  0  0  0  0  0  0  0
   -1.1890   -1.3703   -0.1316 C   0  0  1  0  0  0  0  0  0  0  0  0
    0.2604   -1.3001    0.4363 C   0  0  2  0  0  0  0  0  0  0  0  0
    1.0150   -0.3879   -0.3597 O   0  0  0  0  0  0  0  0  0  0  0  0
    2.2924    0.1085   -0.0513 C   0  0  0  0  0  0  0  0  0  0  0  0
    3.0284   -0.3489    1.0542 C   0  0  0  0  0  0  0  0  0  0  0  0
    4.3265    0.1342    1.2871 C   0  0  0  0  0  0  0  0  0  0  0  0
    5.1339   -0.2906    2.3752 C   0  0  0  0  0  0  0  0  0  0  0  0
    4.7094   -1.2228    3.3268 O   0  0  0  0  0  0  0  0  0  0  0  0
    6.4227    0.2371    2.5224 C   0  0  0  0  0  0  0  0  0  0  0  0
    6.9234    1.1736    1.6158 C   0  0  0  0  0  0  0  0  0  0  0  0
    8.2099    1.6787    1.7902 O   0  0  0  0  0  0  0  0  0  0  0  0
    6.1320    1.5959    0.5437 C   0  0  0  0  0  0  0  0  0  0  0  0
    4.8424    1.0850    0.3750 C   0  0  0  0  0  0  0  0  0  0  0  0
    4.1100    1.5069   -0.6493 O   0  0  0  0  0  3  0  0  0  0  0  0
    2.8739    1.0794   -0.8885 C   0  0  0  0  0  0  0  0  0  0  0  0
    2.1510    1.6419   -2.0527 C   0  0  0  0  0  0  0  0  0  0  0  0
    0.7965    2.0152   -1.9638 C   0  0  0  0  0  0  0  0  0  0  0  0
    0.1378    2.5550   -3.0724 C   0  0  0  0  0  0  0  0  0  0  0  0
    0.8242    2.7450   -4.2752 C   0  0  0  0  0  0  0  0  0  0  0  0
    0.1547    3.2830   -5.3719 O   0  0  0  0  0  0  0  0  0  0  0  0
    2.1784    2.3974   -4.3646 C   0  0  0  0  0  0  0  0  0  0  0  0
    2.8396    1.8559   -3.2580 C   0  0  0  0  0  0  0  0  0  0  0  0
    0.9181   -2.5593    0.4362 O   0  0  0  0  0  0  0  0  0  0  0  0
    0.1023   -3.5404    1.0463 C   0  0  2  0  0  0  0  0  0  0  0  0
    0.9620   -4.7573    1.4071 C   0  0  0  0  0  0  0  0  0  0  0  0
    1.6420   -5.2298    0.2762 O   0  0  0  0  0  0  0  0  0  0  0  0
   -1.0596   -3.9205    0.0894 C   0  0  1  0  0  0  0  0  0  0  0  0
   -2.1654   -4.4035    0.8131 O   0  0  0  0  0  0  0  0  0  0  0  0
   -1.4575   -2.7286   -0.8203 C   0  0  2  0  0  0  0  0  0  0  0  0
   -0.7192   -2.7986   -2.0155 O   0  0  0  0  0  0  0  0  0  0  0  0
   -4.2566   -0.4064    1.6415 C   0  0  2  0  0  0  0  0  0  0  0  0
   -4.7731   -1.7127    1.6304 O   0  0  0  0  0  0  0  0  0  0  0  0
   -5.3731    0.6056    1.3222 C   0  0  1  0  0  0  0  0  0  0  0  0
   -6.2994    0.6462    2.3776 O   0  0  0  0  0  0  0  0  0  0  0  0
   -4.7787    2.0110    1.1157 C   0  0  2  0  0  0  0  0  0  0  0  0
   -5.7733    2.8723    0.6229 O   0  0  0  0  0  0  0  0  0  0  0  0
   -3.2696    5.0581   -0.7807 H   0  0  0  0  0  0  0  0  0  0  0  0
   -1.9871    3.1801   -0.6399 H   0  0  0  0  0  0  0  0  0  0  0  0
   -2.6443    3.7191    0.9509 H   0  0  0  0  0  0  0  0  0  0  0  0
   -3.9723    1.6362   -0.8913 H   0  0  0  0  0  0  0  0  0  0  0  0
   -3.5712   -0.5739   -0.4073 H   0  0  0  0  0  0  0  0  0  0  0  0
   -1.2880   -0.5728   -0.9108 H   0  0  0  0  0  0  0  0  0  0  0  0
    0.2267   -0.8967    1.4751 H   0  0  0  0  0  0  0  0  0  0  0  0
    2.5870   -1.0825    1.7050 H   0  0  0  0  0  0  0  0  0  0  0  0
    3.8024   -1.6658    3.3299 H   0  0  0  0  0  0  0  0  0  0  0  0
    7.0413   -0.0850    3.3510 H   0  0  0  0  0  0  0  0  0  0  0  0
    8.6032    2.3594    1.1506 H   0  0  0  0  0  0  0  0  0  0  0  0
    6.5181    2.3232   -0.1599 H   0  0  0  0  0  0  0  0  0  0  0  0
    0.2523    1.9111   -1.0339 H   0  0  0  0  0  0  0  0  0  0  0  0
   -0.9055    2.8337   -2.9945 H   0  0  0  0  0  0  0  0  0  0  0  0
    0.6245    3.4343   -6.2569 H   0  0  0  0  0  0  0  0  0  0  0  0
    2.7194    2.5466   -5.2904 H   0  0  0  0  0  0  0  0  0  0  0  0
    3.8862    1.5908   -3.3464 H   0  0  0  0  0  0  0  0  0  0  0  0
   -0.3115   -3.1550    2.0095 H   0  0  0  0  0  0  0  0  0  0  0  0
    1.7005   -4.4583    2.1846 H   0  0  0  0  0  0  0  0  0  0  0  0
    0.3157   -5.5610    1.8266 H   0  0  0  0  0  0  0  0  0  0  0  0
    2.1701   -6.0131    0.5803 H   0  0  0  0  0  0  0  0  0  0  0  0
   -0.7317   -4.7480   -0.5780 H   0  0  0  0  0  0  0  0  0  0  0  0
   -2.5045   -3.6657    1.3826 H   0  0  0  0  0  0  0  0  0  0  0  0
   -2.5435   -2.8105   -1.0628 H   0  0  0  0  0  0  0  0  0  0  0  0
   -1.1933   -2.2361   -2.6826 H   0  0  0  0  0  0  0  0  0  0  0  0
   -3.8179   -0.1720    2.6414 H   0  0  0  0  0  0  0  0  0  0  0  0
   -5.1628   -1.8770    2.5285 H   0  0  0  0  0  0  0  0  0  0  0  0
   -5.8834    0.2997    0.3766 H   0  0  0  0  0  0  0  0  0  0  0  0
   -6.9320   -0.1057    2.2368 H   0  0  0  0  0  0  0  0  0  0  0  0
   -4.3918    2.3897    2.0924 H   0  0  0  0  0  0  0  0  0  0  0  0
   -6.3182    3.1593    1.4016 H   0  0  0  0  0  0  0  0  0  0  0  0
  1  2  1  0
  2  3  1  0
  3  4  1  0
  4  5  1  0
  5  6  1  0
  6  7  1  0
  7  8  1  0
  8  9  1  0
  9 10  1  0
 10 11  2  0
 11 12  1  0
 12 13  2  0
 13 14  1  0
 13 15  1  0
 15 16  2  0
 16 17  1  0
 16 18  1  0
 18 19  2  0
 19 20  1  0
 20 21  2  0
 21 22  1  0
 22 23  2  0
 23 24  1  0
 24 25  2  0
 25 26  1  0
 25 27  1  0
 27 28  2  0
  8 29  1  0
 29 30  1  0
 30 31  1  0
 31 32  1  0
 30 33  1  0
 33 34  1  0
 33 35  1  0
 35 36  1  0
  5 37  1  0
 37 38  1  0
 37 39  1  0
 39 40  1  0
 39 41  1  0
 41 42  1  0
 41  3  1  0
 35  7  1  0
 21 10  1  0
 28 22  1  0
 19 12  1  0
  1 43  1  0
  2 44  1  0
  2 45  1  0
  3 46  1  6
  5 47  1  6
  7 48  1  6
  8 49  1  1
 11 50  1  0
 14 51  1  0
 15 52  1  0
 17 53  1  0
 18 54  1  0
 23 55  1  0
 24 56  1  0
 26 57  1  0
 27 58  1  0
 28 59  1  0
 30 60  1  1
 31 61  1  0
 31 62  1  0
 32 63  1  0
 33 64  1  6
 34 65  1  0
 35 66  1  6
 36 67  1  0
 37 68  1  1
 38 69  1  0
 39 70  1  6
 40 71  1  0
 41 72  1  1
 42 73  1  0
M  CHG  1  20   1
M  END
>  <LIG_ID>  (18) 
17

>  <_smiles>  (18) 
OC[C@H]1O[C@@H](O[C@H]2[C@H](OC3=CC4=C(O)C=C(O)C=C4[O+]=C3C3=CC=C(O)C=C3)O[C@H](CO)[C@@H](O)[C@@H]2O)[C@H](O)[C@@H](O)[C@@H]1O

>  <_name>  (18) 
Pelargonidin 3-O-sophoroside

>  <_molecular_weight>  (18) 
595.526

>  <_formula>  (18) 
C27H31O15

>  <_logP>  (18) 
-1.4994000000000012

>  <_molecular_wt_calculated>  (18) 
595.5300000000016

>  <_havy_atom_count>  (18) 
42

>  <_hydrogen_acceptors>  (18) 
14

>  <_hydrogen_donors>  (18) 
10

>  <_rotatable_bonds>  (18) 
17

>  <_amide_bonds>  (18) 
0

>  <_ring_count>  (18) 
5

$$$$
Pelargonidin 3-O-glucosyl-rutinoside
     RDKit          3D

 93 98  0  0  0  0  0  0  0  0999 V2000
    6.4836    0.3705   -0.8692 C   0  0  2  0  0  0  0  0  0  0  0  0
    6.5326   -0.1533   -2.3037 C   0  0  0  0  0  0  0  0  0  0  0  0
    5.6045    1.4778   -0.8132 O   0  0  0  0  0  0  0  0  0  0  0  0
    5.2661    1.8038    0.5333 C   0  0  1  0  0  0  0  0  0  0  0  0
    4.2458    0.9399    1.0014 O   0  0  0  0  0  0  0  0  0  0  0  0
    3.0019    1.2865    0.4257 C   0  0  0  0  0  0  0  0  0  0  0  0
    1.9777    0.1743    0.6860 C   0  0  1  0  0  0  0  0  0  0  0  0
    0.7028    0.6593    0.3055 O   0  0  0  0  0  0  0  0  0  0  0  0
   -0.3118   -0.2570    0.6760 C   0  0  1  0  0  0  0  0  0  0  0  0
   -1.5807    0.3261    0.3851 O   0  0  0  0  0  0  0  0  0  0  0  0
   -2.0866    1.4933    0.9821 C   0  0  0  0  0  0  0  0  0  0  0  0
   -1.4719    2.0849    2.0985 C   0  0  0  0  0  0  0  0  0  0  0  0
   -2.0493    3.2085    2.7002 C   0  0  0  0  0  0  0  0  0  0  0  0
   -3.2463    3.7153    2.1535 C   0  0  0  0  0  0  0  0  0  0  0  0
   -3.8631    4.8287    2.7324 C   0  0  0  0  0  0  0  0  0  0  0  0
   -3.2966    5.4457    3.8516 C   0  0  0  0  0  0  0  0  0  0  0  0
   -3.9242    6.5545    4.4150 O   0  0  0  0  0  0  0  0  0  0  0  0
   -2.1054    4.9468    4.3963 C   0  0  0  0  0  0  0  0  0  0  0  0
   -1.4767    3.8295    3.8271 C   0  0  0  0  0  0  0  0  0  0  0  0
   -0.2918    3.3411    4.3789 O   0  0  0  0  0  0  0  0  0  0  0  0
   -3.7908    3.1442    1.0852 O   0  0  0  0  0  3  0  0  0  0  0  0
   -3.2631    2.0846    0.4751 C   0  0  0  0  0  0  0  0  0  0  0  0
   -3.9450    1.5666   -0.7329 C   0  0  0  0  0  0  0  0  0  0  0  0
   -5.3488    1.5295   -0.7739 C   0  0  0  0  0  0  0  0  0  0  0  0
   -6.0125    1.0860   -1.9219 C   0  0  0  0  0  0  0  0  0  0  0  0
   -5.2836    0.6876   -3.0462 C   0  0  0  0  0  0  0  0  0  0  0  0
   -5.9572    0.2366   -4.1789 O   0  0  0  0  0  0  0  0  0  0  0  0
   -3.8844    0.7455   -3.0229 C   0  0  0  0  0  0  0  0  0  0  0  0
   -3.2179    1.1853   -1.8758 C   0  0  0  0  0  0  0  0  0  0  0  0
   -0.1743   -1.5601   -0.1274 C   0  0  2  0  0  0  0  0  0  0  0  0
   -1.1570   -2.4769    0.3293 O   0  0  0  0  0  0  0  0  0  0  0  0
   -1.8428   -3.0934   -0.7440 C   0  0  2  0  0  0  0  0  0  0  0  0
   -2.7903   -2.1687   -1.2639 O   0  0  0  0  0  0  0  0  0  0  0  0
   -3.8360   -2.7347   -2.0534 C   0  0  0  0  0  0  0  0  0  0  0  0
   -5.1723   -2.5625   -1.3093 C   0  0  0  0  0  0  0  0  0  0  0  0
   -6.2551   -2.7472   -2.1828 O   0  0  0  0  0  0  0  0  0  0  0  0
   -3.6004   -4.1951   -2.5271 C   0  0  1  0  0  0  0  0  0  0  0  0
   -2.5673   -4.1953   -3.4815 O   0  0  0  0  0  0  0  0  0  0  0  0
   -3.2351   -5.1293   -1.3494 C   0  0  2  0  0  0  0  0  0  0  0  0
   -4.4017   -5.7372   -0.8555 O   0  0  0  0  0  0  0  0  0  0  0  0
   -2.5143   -4.3732   -0.2107 C   0  0  1  0  0  0  0  0  0  0  0  0
   -1.5507   -5.2201    0.3644 O   0  0  0  0  0  0  0  0  0  0  0  0
    1.2216   -2.1637    0.1076 C   0  0  1  0  0  0  0  0  0  0  0  0
    1.4127   -3.2435   -0.7700 O   0  0  0  0  0  0  0  0  0  0  0  0
    2.3170   -1.1041   -0.1176 C   0  0  2  0  0  0  0  0  0  0  0  0
    3.5563   -1.6165    0.3019 O   0  0  0  0  0  0  0  0  0  0  0  0
    6.4807    1.7338    1.5064 C   0  0  2  0  0  0  0  0  0  0  0  0
    6.3896    2.7355    2.4865 O   0  0  0  0  0  0  0  0  0  0  0  0
    7.8037    1.8767    0.7315 C   0  0  2  0  0  0  0  0  0  0  0  0
    7.8779    3.1521    0.1424 O   0  0  0  0  0  0  0  0  0  0  0  0
    7.8939    0.7956   -0.3777 C   0  0  1  0  0  0  0  0  0  0  0  0
    8.6188   -0.3253    0.0666 O   0  0  0  0  0  0  0  0  0  0  0  0
    6.0933   -0.4630   -0.2385 H   0  0  0  0  0  0  0  0  0  0  0  0
    5.5193   -0.4863   -2.6145 H   0  0  0  0  0  0  0  0  0  0  0  0
    7.2256   -1.0186   -2.3733 H   0  0  0  0  0  0  0  0  0  0  0  0
    6.8728    0.6442   -2.9985 H   0  0  0  0  0  0  0  0  0  0  0  0
    4.9161    2.8638    0.5342 H   0  0  0  0  0  0  0  0  0  0  0  0
    3.0788    1.4517   -0.6745 H   0  0  0  0  0  0  0  0  0  0  0  0
    2.6303    2.2238    0.8981 H   0  0  0  0  0  0  0  0  0  0  0  0
    1.9976   -0.0476    1.7797 H   0  0  0  0  0  0  0  0  0  0  0  0
   -0.2693   -0.4927    1.7655 H   0  0  0  0  0  0  0  0  0  0  0  0
   -0.5622    1.6679    2.5076 H   0  0  0  0  0  0  0  0  0  0  0  0
   -4.7825    5.2166    2.3114 H   0  0  0  0  0  0  0  0  0  0  0  0
   -3.5403    7.0253    5.2260 H   0  0  0  0  0  0  0  0  0  0  0  0
   -1.6685    5.4271    5.2628 H   0  0  0  0  0  0  0  0  0  0  0  0
    0.1353    3.7745    5.1892 H   0  0  0  0  0  0  0  0  0  0  0  0
   -5.9311    1.8347    0.0869 H   0  0  0  0  0  0  0  0  0  0  0  0
   -7.0943    1.0487   -1.9364 H   0  0  0  0  0  0  0  0  0  0  0  0
   -5.4569   -0.0651   -5.0069 H   0  0  0  0  0  0  0  0  0  0  0  0
   -3.3122    0.4510   -3.8935 H   0  0  0  0  0  0  0  0  0  0  0  0
   -2.1378    1.2528   -1.8948 H   0  0  0  0  0  0  0  0  0  0  0  0
   -0.2771   -1.2921   -1.2089 H   0  0  0  0  0  0  0  0  0  0  0  0
   -1.1262   -3.3920   -1.5456 H   0  0  0  0  0  0  0  0  0  0  0  0
   -3.9100   -2.1139   -2.9725 H   0  0  0  0  0  0  0  0  0  0  0  0
   -5.2275   -1.5287   -0.9098 H   0  0  0  0  0  0  0  0  0  0  0  0
   -5.2402   -3.2441   -0.4326 H   0  0  0  0  0  0  0  0  0  0  0  0
   -6.5565   -3.6870   -2.0772 H   0  0  0  0  0  0  0  0  0  0  0  0
   -4.5290   -4.5671   -3.0206 H   0  0  0  0  0  0  0  0  0  0  0  0
   -2.6432   -5.0434   -3.9927 H   0  0  0  0  0  0  0  0  0  0  0  0
   -2.5618   -5.9266   -1.7459 H   0  0  0  0  0  0  0  0  0  0  0  0
   -4.1106   -6.4960   -0.2849 H   0  0  0  0  0  0  0  0  0  0  0  0
   -3.2618   -4.0760    0.5629 H   0  0  0  0  0  0  0  0  0  0  0  0
   -1.3914   -4.8967    1.2895 H   0  0  0  0  0  0  0  0  0  0  0  0
    1.2732   -2.5185    1.1660 H   0  0  0  0  0  0  0  0  0  0  0  0
    2.0809   -3.8451   -0.3491 H   0  0  0  0  0  0  0  0  0  0  0  0
    2.3518   -0.8417   -1.2029 H   0  0  0  0  0  0  0  0  0  0  0  0
    3.9379   -2.1175   -0.4656 H   0  0  0  0  0  0  0  0  0  0  0  0
    6.4956    0.7379    2.0096 H   0  0  0  0  0  0  0  0  0  0  0  0
    5.6434    2.4768    3.0884 H   0  0  0  0  0  0  0  0  0  0  0  0
    8.6589    1.7437    1.4365 H   0  0  0  0  0  0  0  0  0  0  0  0
    8.1784    3.7821    0.8486 H   0  0  0  0  0  0  0  0  0  0  0  0
    8.4620    1.2336   -1.2288 H   0  0  0  0  0  0  0  0  0  0  0  0
    8.1571   -0.6858    0.8682 H   0  0  0  0  0  0  0  0  0  0  0  0
  1  2  1  0
  1  3  1  0
  3  4  1  0
  4  5  1  0
  5  6  1  0
  6  7  1  0
  7  8  1  0
  8  9  1  0
  9 10  1  0
 10 11  1  0
 11 12  2  0
 12 13  1  0
 13 14  2  0
 14 15  1  0
 15 16  2  0
 16 17  1  0
 16 18  1  0
 18 19  2  0
 19 20  1  0
 14 21  1  0
 21 22  2  0
 22 23  1  0
 23 24  2  0
 24 25  1  0
 25 26  2  0
 26 27  1  0
 26 28  1  0
 28 29  2  0
  9 30  1  0
 30 31  1  0
 31 32  1  0
 32 33  1  0
 33 34  1  0
 34 35  1  0
 35 36  1  0
 34 37  1  0
 37 38  1  0
 37 39  1  0
 39 40  1  0
 39 41  1  0
 41 42  1  0
 30 43  1  0
 43 44  1  0
 43 45  1  0
 45 46  1  0
  4 47  1  0
 47 48  1  0
 47 49  1  0
 49 50  1  0
 49 51  1  0
 51 52  1  0
 51  1  1  0
 45  7  1  0
 22 11  1  0
 29 23  1  0
 41 32  1  0
 19 13  1  0
  1 53  1  1
  2 54  1  0
  2 55  1  0
  2 56  1  0
  4 57  1  6
  6 58  1  0
  6 59  1  0
  7 60  1  1
  9 61  1  1
 12 62  1  0
 15 63  1  0
 17 64  1  0
 18 65  1  0
 20 66  1  0
 24 67  1  0
 25 68  1  0
 27 69  1  0
 28 70  1  0
 29 71  1  0
 30 72  1  6
 32 73  1  6
 34 74  1  0
 35 75  1  0
 35 76  1  0
 36 77  1  0
 37 78  1  6
 38 79  1  0
 39 80  1  6
 40 81  1  0
 41 82  1  1
 42 83  1  0
 43 84  1  1
 44 85  1  0
 45 86  1  6
 46 87  1  0
 47 88  1  1
 48 89  1  0
 49 90  1  1
 50 91  1  0
 51 92  1  6
 52 93  1  0
M  CHG  1  21   1
M  END
>  <LIG_ID>  (19) 
18

>  <_smiles>  (19) 
[H][C@@]1(C)O[C@@]([H])(OC[C@@]2([H])O[C@@]([H])(OC3=CC4=C(C=C(O)C=C4O)[O+]=C3C3=CC=C(O)C=C3)[C@]([H])(O[C@]3([H])OC(CO)[C@@]([H])(O)[C@]([H])(O)[C@@]3([H])O)[C@@]([H])(O)[C@]2([H])O)[C@]([H])(O)[C@]([H])(O)[C@@]1([H])O

>  <_name>  (19) 
Pelargonidin 3-O-glucosyl-rutinoside

>  <_molecular_weight>  (19) 
741.667

>  <_formula>  (19) 
C33H41O19

>  <_logP>  (19) 
-2.6475999999999993

>  <_molecular_wt_calculated>  (19) 
741.672000000002

>  <_havy_atom_count>  (19) 
52

>  <_hydrogen_acceptors>  (19) 
18

>  <_hydrogen_donors>  (19) 
12

>  <_rotatable_bonds>  (19) 
22

>  <_amide_bonds>  (19) 
0

>  <_ring_count>  (19) 
6

$$$$
Cyanidin 3-O-(6''-succinyl-glucoside)
     RDKit          3D

 64 67  0  0  0  0  0  0  0  0999 V2000
    2.1025   -0.7221   -0.0999 C   0  0  1  0  0  0  0  0  0  0  0  0
    2.0736   -2.2323    0.1583 C   0  0  0  0  0  0  0  0  0  0  0  0
    3.4021   -2.7443    0.2079 O   0  0  0  0  0  0  0  0  0  0  0  0
    3.6833   -4.0885    0.4650 C   0  0  0  0  0  0  0  0  0  0  0  0
    2.7516   -4.9147    0.6664 O   0  0  0  0  0  0  0  0  0  0  0  0
    5.1073   -4.5361    0.5515 C   0  0  0  0  0  0  0  0  0  0  0  0
    5.6750   -4.2371    1.9398 C   0  0  0  0  0  0  0  0  0  0  0  0
    7.1013   -4.6787    2.0278 C   0  0  0  0  0  0  0  0  0  0  0  0
    7.4005   -5.9834    2.4071 O   0  0  0  0  0  0  0  0  0  0  0  0
    8.0290   -3.8831    1.7207 O   0  0  0  0  0  0  0  0  0  0  0  0
    0.7658   -0.2922   -0.3027 O   0  0  0  0  0  0  0  0  0  0  0  0
    0.7066    1.1145   -0.4376 C   0  0  1  0  0  0  0  0  0  0  0  0
   -0.5529    1.5008   -0.9971 O   0  0  0  0  0  0  0  0  0  0  0  0
   -1.8377    1.1165   -0.5623 C   0  0  0  0  0  0  0  0  0  0  0  0
   -2.0479    0.2794    0.5482 C   0  0  0  0  0  0  0  0  0  0  0  0
   -3.3518   -0.0306    0.9671 C   0  0  0  0  0  0  0  0  0  0  0  0
   -3.6365   -0.8629    2.0821 C   0  0  0  0  0  0  0  0  0  0  0  0
   -2.6455   -1.4704    2.8593 O   0  0  0  0  0  0  0  0  0  0  0  0
   -4.9694   -1.1031    2.4381 C   0  0  0  0  0  0  0  0  0  0  0  0
   -6.0198   -0.5397    1.7109 C   0  0  0  0  0  0  0  0  0  0  0  0
   -7.3349   -0.7987    2.0908 O   0  0  0  0  0  0  0  0  0  0  0  0
   -5.7443    0.2766    0.6102 C   0  0  0  0  0  0  0  0  0  0  0  0
   -4.4227    0.5328    0.2357 C   0  0  0  0  0  0  0  0  0  0  0  0
   -4.1888    1.3094   -0.8150 O   0  0  0  0  0  3  0  0  0  0  0  0
   -2.9671    1.6077   -1.2466 C   0  0  0  0  0  0  0  0  0  0  0  0
   -2.8441    2.4753   -2.4399 C   0  0  0  0  0  0  0  0  0  0  0  0
   -1.9335    2.1785   -3.4689 C   0  0  0  0  0  0  0  0  0  0  0  0
   -1.8497    2.9995   -4.5962 C   0  0  0  0  0  0  0  0  0  0  0  0
   -2.6802    4.1174   -4.7207 C   0  0  0  0  0  0  0  0  0  0  0  0
   -2.5723    4.9193   -5.8564 O   0  0  0  0  0  0  0  0  0  0  0  0
   -3.6089    4.4118   -3.7083 C   0  0  0  0  0  0  0  0  0  0  0  0
   -4.4453    5.5205   -3.8289 O   0  0  0  0  0  0  0  0  0  0  0  0
   -3.6918    3.5863   -2.5774 C   0  0  0  0  0  0  0  0  0  0  0  0
    0.9426    1.8108    0.9247 C   0  0  2  0  0  0  0  0  0  0  0  0
    1.4482    3.1110    0.7431 O   0  0  0  0  0  0  0  0  0  0  0  0
    1.8509    0.9663    1.8567 C   0  0  1  0  0  0  0  0  0  0  0  0
    1.0344    0.1798    2.6896 O   0  0  0  0  0  0  0  0  0  0  0  0
    2.8154    0.0398    1.0740 C   0  0  2  0  0  0  0  0  0  0  0  0
    3.9353    0.7588    0.6160 O   0  0  0  0  0  0  0  0  0  0  0  0
    2.6703   -0.5816   -1.0489 H   0  0  0  0  0  0  0  0  0  0  0  0
    1.5185   -2.7360   -0.6634 H   0  0  0  0  0  0  0  0  0  0  0  0
    1.5511   -2.4393    1.1185 H   0  0  0  0  0  0  0  0  0  0  0  0
    5.7003   -4.0006   -0.2217 H   0  0  0  0  0  0  0  0  0  0  0  0
    5.1689   -5.6272    0.3436 H   0  0  0  0  0  0  0  0  0  0  0  0
    5.0815   -4.7725    2.7127 H   0  0  0  0  0  0  0  0  0  0  0  0
    5.6124   -3.1460    2.1480 H   0  0  0  0  0  0  0  0  0  0  0  0
    8.3605   -6.3029    2.4560 H   0  0  0  0  0  0  0  0  0  0  0  0
    1.4789    1.4569   -1.1647 H   0  0  0  0  0  0  0  0  0  0  0  0
   -1.2012   -0.1021    1.0848 H   0  0  0  0  0  0  0  0  0  0  0  0
   -1.6536   -1.3897    2.6901 H   0  0  0  0  0  0  0  0  0  0  0  0
   -5.1903   -1.7363    3.2886 H   0  0  0  0  0  0  0  0  0  0  0  0
   -8.1199   -0.4057    1.5845 H   0  0  0  0  0  0  0  0  0  0  0  0
   -6.5576    0.7135    0.0438 H   0  0  0  0  0  0  0  0  0  0  0  0
   -1.3029    1.3002   -3.4142 H   0  0  0  0  0  0  0  0  0  0  0  0
   -1.1423    2.7615   -5.3805 H   0  0  0  0  0  0  0  0  0  0  0  0
   -3.1519    5.7386   -5.9935 H   0  0  0  0  0  0  0  0  0  0  0  0
   -5.1236    5.7543   -3.1133 H   0  0  0  0  0  0  0  0  0  0  0  0
   -4.4096    3.8192   -1.7999 H   0  0  0  0  0  0  0  0  0  0  0  0
   -0.0344    1.9369    1.4374 H   0  0  0  0  0  0  0  0  0  0  0  0
    2.3550    3.0387    0.3514 H   0  0  0  0  0  0  0  0  0  0  0  0
    2.4500    1.6595    2.4943 H   0  0  0  0  0  0  0  0  0  0  0  0
    1.5818   -0.0769    3.4774 H   0  0  0  0  0  0  0  0  0  0  0  0
    3.2150   -0.6950    1.8078 H   0  0  0  0  0  0  0  0  0  0  0  0
    3.6631    1.2939   -0.1717 H   0  0  0  0  0  0  0  0  0  0  0  0
  1  2  1  0
  2  3  1  0
  3  4  1  0
  4  5  2  0
  4  6  1  0
  6  7  1  0
  7  8  1  0
  8  9  1  0
  8 10  2  0
  1 11  1  0
 11 12  1  0
 12 13  1  0
 13 14  1  0
 14 15  2  0
 15 16  1  0
 16 17  2  0
 17 18  1  0
 17 19  1  0
 19 20  2  0
 20 21  1  0
 20 22  1  0
 22 23  2  0
 23 24  1  0
 24 25  2  0
 25 26  1  0
 26 27  2  0
 27 28  1  0
 28 29  2  0
 29 30  1  0
 29 31  1  0
 31 32  1  0
 31 33  2  0
 12 34  1  0
 34 35  1  0
 34 36  1  0
 36 37  1  0
 36 38  1  0
 38 39  1  0
 38  1  1  0
 25 14  1  0
 33 26  1  0
 23 16  1  0
  1 40  1  6
  2 41  1  0
  2 42  1  0
  6 43  1  0
  6 44  1  0
  7 45  1  0
  7 46  1  0
  9 47  1  0
 12 48  1  6
 15 49  1  0
 18 50  1  0
 19 51  1  0
 21 52  1  0
 22 53  1  0
 27 54  1  0
 28 55  1  0
 30 56  1  0
 32 57  1  0
 33 58  1  0
 34 59  1  1
 35 60  1  0
 36 61  1  1
 37 62  1  0
 38 63  1  1
 39 64  1  0
M  CHG  1  24   1
M  END
>  <LIG_ID>  (20) 
19

>  <_smiles>  (20) 
[H][C@]1(COC(=O)CCC(O)=O)O[C@@]([H])(OC2=CC3=C(O)C=C(O)C=C3[O+]=C2C2=CC=C(O)C(O)=C2)[C@]([H])(O)[C@@]([H])(O)[C@]1([H])O

>  <_name>  (20) 
Cyanidin 3-O-(6''-succinyl-glucoside)

>  <_molecular_weight>  (20) 
549.458

>  <_formula>  (20) 
C25H25O14

>  <_logP>  (20) 
0.7976999999999992

>  <_molecular_wt_calculated>  (20) 
549.4610000000014

>  <_havy_atom_count>  (20) 
39

>  <_hydrogen_acceptors>  (20) 
13

>  <_hydrogen_donors>  (20) 
8

>  <_rotatable_bonds>  (20) 
15

>  <_amide_bonds>  (20) 
0

>  <_ring_count>  (20) 
4

$$$$
Pelargonidin 3-O-(6''-succinyl-glucoside)
     RDKit          3D

 63 66  0  0  0  0  0  0  0  0999 V2000
    2.1077   -1.3636   -1.4286 C   0  0  1  0  0  0  0  0  0  0  0  0
    2.9985   -2.4880   -0.8879 C   0  0  0  0  0  0  0  0  0  0  0  0
    3.5106   -2.1340    0.3933 O   0  0  0  0  0  0  0  0  0  0  0  0
    4.4257   -2.9276    1.0893 C   0  0  0  0  0  0  0  0  0  0  0  0
    4.7981   -4.0389    0.6234 O   0  0  0  0  0  0  0  0  0  0  0  0
    4.9579   -2.4560    2.4092 C   0  0  0  0  0  0  0  0  0  0  0  0
    5.5167   -1.0306    2.3238 C   0  0  0  0  0  0  0  0  0  0  0  0
    6.6978   -0.9557    1.4051 C   0  0  0  0  0  0  0  0  0  0  0  0
    7.9524   -1.3537    1.8558 O   0  0  0  0  0  0  0  0  0  0  0  0
    6.5497   -0.5655    0.2159 O   0  0  0  0  0  0  0  0  0  0  0  0
    1.0407   -1.1609   -0.5172 O   0  0  0  0  0  0  0  0  0  0  0  0
    0.0847   -0.2594   -1.0462 C   0  0  1  0  0  0  0  0  0  0  0  0
   -0.9924   -0.1839   -0.1093 O   0  0  0  0  0  0  0  0  0  0  0  0
   -2.3058    0.2562   -0.3569 C   0  0  0  0  0  0  0  0  0  0  0  0
   -2.8171    0.4293   -1.6547 C   0  0  0  0  0  0  0  0  0  0  0  0
   -4.1152    0.9206   -1.8351 C   0  0  0  0  0  0  0  0  0  0  0  0
   -4.6651    1.1261   -3.1156 C   0  0  0  0  0  0  0  0  0  0  0  0
   -3.9218    0.8362   -4.2604 O   0  0  0  0  0  0  0  0  0  0  0  0
   -5.9694    1.6277   -3.2371 C   0  0  0  0  0  0  0  0  0  0  0  0
   -6.7250    1.9249   -2.0983 C   0  0  0  0  0  0  0  0  0  0  0  0
   -8.0179    2.4230   -2.2432 O   0  0  0  0  0  0  0  0  0  0  0  0
   -6.1785    1.7201   -0.8250 C   0  0  0  0  0  0  0  0  0  0  0  0
   -4.8801    1.2193   -0.6889 C   0  0  0  0  0  0  0  0  0  0  0  0
   -4.3756    1.0236    0.5236 O   0  0  0  0  0  3  0  0  0  0  0  0
   -3.1500    0.5488    0.7357 C   0  0  0  0  0  0  0  0  0  0  0  0
   -2.7069    0.3676    2.1367 C   0  0  0  0  0  0  0  0  0  0  0  0
   -2.0171   -0.7894    2.5436 C   0  0  0  0  0  0  0  0  0  0  0  0
   -1.6231   -0.9453    3.8759 C   0  0  0  0  0  0  0  0  0  0  0  0
   -1.9244    0.0413    4.8194 C   0  0  0  0  0  0  0  0  0  0  0  0
   -1.5240   -0.1270    6.1430 O   0  0  0  0  0  0  0  0  0  0  0  0
   -2.6296    1.1861    4.4261 C   0  0  0  0  0  0  0  0  0  0  0  0
   -3.0250    1.3447    3.0944 C   0  0  0  0  0  0  0  0  0  0  0  0
    0.7253    1.1389   -1.2136 C   0  0  2  0  0  0  0  0  0  0  0  0
   -0.1976    2.0710   -1.7192 O   0  0  0  0  0  0  0  0  0  0  0  0
    1.9698    1.0559   -2.1175 C   0  0  1  0  0  0  0  0  0  0  0  0
    2.6332    2.2939   -2.1016 O   0  0  0  0  0  0  0  0  0  0  0  0
    2.9105   -0.0553   -1.6182 C   0  0  2  0  0  0  0  0  0  0  0  0
    3.9373   -0.2635   -2.5550 O   0  0  0  0  0  0  0  0  0  0  0  0
    1.7177   -1.7073   -2.4159 H   0  0  0  0  0  0  0  0  0  0  0  0
    3.8385   -2.6794   -1.5911 H   0  0  0  0  0  0  0  0  0  0  0  0
    2.3993   -3.4204   -0.7998 H   0  0  0  0  0  0  0  0  0  0  0  0
    5.7509   -3.1467    2.7723 H   0  0  0  0  0  0  0  0  0  0  0  0
    4.1289   -2.4743    3.1482 H   0  0  0  0  0  0  0  0  0  0  0  0
    5.8340   -0.7076    3.3383 H   0  0  0  0  0  0  0  0  0  0  0  0
    4.7242   -0.3280    1.9839 H   0  0  0  0  0  0  0  0  0  0  0  0
    8.7581   -1.3231    1.2426 H   0  0  0  0  0  0  0  0  0  0  0  0
   -0.2867   -0.6509   -2.0183 H   0  0  0  0  0  0  0  0  0  0  0  0
   -2.2202    0.1897   -2.5207 H   0  0  0  0  0  0  0  0  0  0  0  0
   -4.3001    0.9783   -5.1896 H   0  0  0  0  0  0  0  0  0  0  0  0
   -6.3978    1.7882   -4.2186 H   0  0  0  0  0  0  0  0  0  0  0  0
   -8.5919    2.6484   -1.4390 H   0  0  0  0  0  0  0  0  0  0  0  0
   -6.7621    1.9483    0.0583 H   0  0  0  0  0  0  0  0  0  0  0  0
   -1.8022   -1.5829    1.8393 H   0  0  0  0  0  0  0  0  0  0  0  0
   -1.0900   -1.8382    4.1772 H   0  0  0  0  0  0  0  0  0  0  0  0
   -1.7285    0.5691    6.8505 H   0  0  0  0  0  0  0  0  0  0  0  0
   -2.8726    1.9526    5.1510 H   0  0  0  0  0  0  0  0  0  0  0  0
   -3.5683    2.2371    2.8082 H   0  0  0  0  0  0  0  0  0  0  0  0
    1.0452    1.4906   -0.2073 H   0  0  0  0  0  0  0  0  0  0  0  0
   -0.4271    1.7967   -2.6452 H   0  0  0  0  0  0  0  0  0  0  0  0
    1.6413    0.8101   -3.1565 H   0  0  0  0  0  0  0  0  0  0  0  0
    3.1626    2.3494   -2.9396 H   0  0  0  0  0  0  0  0  0  0  0  0
    3.3397    0.2493   -0.6330 H   0  0  0  0  0  0  0  0  0  0  0  0
    4.6524    0.3944   -2.3519 H   0  0  0  0  0  0  0  0  0  0  0  0
  1  2  1  0
  2  3  1  0
  3  4  1  0
  4  5  2  0
  4  6  1  0
  6  7  1  0
  7  8  1  0
  8  9  1  0
  8 10  2  0
  1 11  1  0
 11 12  1  0
 12 13  1  0
 13 14  1  0
 14 15  2  0
 15 16  1  0
 16 17  2  0
 17 18  1  0
 17 19  1  0
 19 20  2  0
 20 21  1  0
 20 22  1  0
 22 23  2  0
 23 24  1  0
 24 25  2  0
 25 26  1  0
 26 27  2  0
 27 28  1  0
 28 29  2  0
 29 30  1  0
 29 31  1  0
 31 32  2  0
 12 33  1  0
 33 34  1  0
 33 35  1  0
 35 36  1  0
 35 37  1  0
 37 38  1  0
 37  1  1  0
 25 14  1  0
 32 26  1  0
 23 16  1  0
  1 39  1  6
  2 40  1  0
  2 41  1  0
  6 42  1  0
  6 43  1  0
  7 44  1  0
  7 45  1  0
  9 46  1  0
 12 47  1  6
 15 48  1  0
 18 49  1  0
 19 50  1  0
 21 51  1  0
 22 52  1  0
 27 53  1  0
 28 54  1  0
 30 55  1  0
 31 56  1  0
 32 57  1  0
 33 58  1  1
 34 59  1  0
 35 60  1  6
 36 61  1  0
 37 62  1  1
 38 63  1  0
M  CHG  1  24   1
M  END
>  <LIG_ID>  (21) 
20

>  <_smiles>  (21) 
[H][C@]1(COC(=O)CCC(O)=O)O[C@@]([H])(OC2=CC3=C(O)C=C(O)C=C3[O+]=C2C2=CC=C(O)C=C2)[C@]([H])(O)[C@@]([H])(O)[C@]1([H])O

>  <_name>  (21) 
Pelargonidin 3-O-(6''-succinyl-glucoside)

>  <_molecular_weight>  (21) 
533.458

>  <_formula>  (21) 
C25H25O13

>  <_logP>  (21) 
1.0920999999999987

>  <_molecular_wt_calculated>  (21) 
533.4620000000011

>  <_havy_atom_count>  (21) 
38

>  <_hydrogen_acceptors>  (21) 
12

>  <_hydrogen_donors>  (21) 
7

>  <_rotatable_bonds>  (21) 
14

>  <_amide_bonds>  (21) 
0

>  <_ring_count>  (21) 
4

$$$$
Delphinidin 3-O-galactoside
     RDKit          3D

 54 57  0  0  0  0  0  0  0  0999 V2000
    2.8849    2.5309    1.3990 O   0  0  0  0  0  0  0  0  0  0  0  0
    3.0037    3.1247    0.1361 C   0  0  0  0  0  0  0  0  0  0  0  0
    2.9843    2.0665   -0.9803 C   0  0  0  0  0  0  0  0  0  0  0  0
    1.7332    1.3798   -1.0180 O   0  0  0  0  0  0  0  0  0  0  0  0
    1.7838    0.1051   -0.4023 C   0  0  0  0  0  0  0  0  0  0  0  0
    0.4722   -0.4567   -0.3709 O   0  0  0  0  0  0  0  0  0  0  0  0
   -0.6247    0.0431    0.3517 C   0  0  0  0  0  0  0  0  0  0  0  0
   -0.5512    1.2249    1.1065 C   0  0  0  0  0  0  0  0  0  0  0  0
   -1.6908    1.7169    1.7642 C   0  0  0  0  0  0  0  0  0  0  0  0
   -1.6953    2.9114    2.5321 C   0  0  0  0  0  0  0  0  0  0  0  0
   -0.5644    3.7139    2.7082 O   0  0  0  0  0  0  0  0  0  0  0  0
   -2.8807    3.3269    3.1512 C   0  0  0  0  0  0  0  0  0  0  0  0
   -4.0572    2.5865    3.0202 C   0  0  0  0  0  0  0  0  0  0  0  0
   -5.2201    3.0280    3.6475 O   0  0  0  0  0  0  0  0  0  0  0  0
   -4.0589    1.4119    2.2626 C   0  0  0  0  0  0  0  0  0  0  0  0
   -2.8883    0.9744    1.6375 C   0  0  0  0  0  0  0  0  0  0  0  0
   -2.9168   -0.1468    0.9270 O   0  0  0  0  0  3  0  0  0  0  0  0
   -1.8537   -0.6426    0.3009 C   0  0  0  0  0  0  0  0  0  0  0  0
   -2.0140   -1.9084   -0.4509 C   0  0  0  0  0  0  0  0  0  0  0  0
   -1.0529   -2.9310   -0.3744 C   0  0  0  0  0  0  0  0  0  0  0  0
   -1.2266   -4.1264   -1.0790 C   0  0  0  0  0  0  0  0  0  0  0  0
   -0.2459   -5.1136   -0.9850 O   0  0  0  0  0  0  0  0  0  0  0  0
   -2.3778   -4.3193   -1.8617 C   0  0  0  0  0  0  0  0  0  0  0  0
   -2.5413   -5.5134   -2.5650 O   0  0  0  0  0  0  0  0  0  0  0  0
   -3.3544   -3.3105   -1.9249 C   0  0  0  0  0  0  0  0  0  0  0  0
   -4.5030   -3.4983   -2.6925 O   0  0  0  0  0  0  0  0  0  0  0  0
   -3.1720   -2.1157   -1.2151 C   0  0  0  0  0  0  0  0  0  0  0  0
    2.6963   -0.8519   -1.2069 C   0  0  0  0  0  0  0  0  0  0  0  0
    3.0715   -1.9523   -0.4139 O   0  0  0  0  0  0  0  0  0  0  0  0
    3.9272   -0.1182   -1.8044 C   0  0  0  0  0  0  0  0  0  0  0  0
    5.0538   -0.9563   -1.8525 O   0  0  0  0  0  0  0  0  0  0  0  0
    4.2488    1.1531   -1.0059 C   0  0  0  0  0  0  0  0  0  0  0  0
    4.6610    0.8199    0.2973 O   0  0  0  0  0  0  0  0  0  0  0  0
    2.9354    3.2713    2.0577 H   0  0  0  0  0  0  0  0  0  0  0  0
    2.1565    3.8295   -0.0203 H   0  0  0  0  0  0  0  0  0  0  0  0
    3.9540    3.7021    0.0789 H   0  0  0  0  0  0  0  0  0  0  0  0
    3.0260    2.6465   -1.9290 H   0  0  0  0  0  0  0  0  0  0  0  0
    2.1497    0.1910    0.6453 H   0  0  0  0  0  0  0  0  0  0  0  0
    0.3849    1.7477    1.1598 H   0  0  0  0  0  0  0  0  0  0  0  0
    0.3401    3.5240    2.3037 H   0  0  0  0  0  0  0  0  0  0  0  0
   -2.8871    4.2369    3.7385 H   0  0  0  0  0  0  0  0  0  0  0  0
   -6.0904    2.5143    3.5723 H   0  0  0  0  0  0  0  0  0  0  0  0
   -4.9704    0.8361    2.1597 H   0  0  0  0  0  0  0  0  0  0  0  0
   -0.1755   -2.8152    0.2496 H   0  0  0  0  0  0  0  0  0  0  0  0
   -0.3225   -5.9978   -1.4732 H   0  0  0  0  0  0  0  0  0  0  0  0
   -3.3554   -5.6943   -3.1399 H   0  0  0  0  0  0  0  0  0  0  0  0
   -5.2224   -2.7873   -2.7550 H   0  0  0  0  0  0  0  0  0  0  0  0
   -3.9290   -1.3425   -1.2714 H   0  0  0  0  0  0  0  0  0  0  0  0
    2.1097   -1.2511   -2.0642 H   0  0  0  0  0  0  0  0  0  0  0  0
    3.6270   -1.6103    0.3340 H   0  0  0  0  0  0  0  0  0  0  0  0
    3.6761    0.2055   -2.8431 H   0  0  0  0  0  0  0  0  0  0  0  0
    4.8777   -1.6285   -2.5619 H   0  0  0  0  0  0  0  0  0  0  0  0
    5.0686    1.7087   -1.5215 H   0  0  0  0  0  0  0  0  0  0  0  0
    5.6167    0.5570    0.2420 H   0  0  0  0  0  0  0  0  0  0  0  0
  1  2  1  0
  2  3  1  0
  3  4  1  0
  4  5  1  0
  5  6  1  0
  6  7  1  0
  7  8  2  0
  8  9  1  0
  9 10  2  0
 10 11  1  0
 10 12  1  0
 12 13  2  0
 13 14  1  0
 13 15  1  0
 15 16  2  0
 16 17  1  0
 17 18  2  0
 18 19  1  0
 19 20  2  0
 20 21  1  0
 21 22  1  0
 21 23  2  0
 23 24  1  0
 23 25  1  0
 25 26  1  0
 25 27  2  0
  5 28  1  0
 28 29  1  0
 28 30  1  0
 30 31  1  0
 30 32  1  0
 32 33  1  0
 32  3  1  0
 18  7  1  0
 27 19  1  0
 16  9  1  0
  1 34  1  0
  2 35  1  0
  2 36  1  0
  3 37  1  0
  5 38  1  0
  8 39  1  0
 11 40  1  0
 12 41  1  0
 14 42  1  0
 15 43  1  0
 20 44  1  0
 22 45  1  0
 24 46  1  0
 26 47  1  0
 27 48  1  0
 28 49  1  0
 29 50  1  0
 30 51  1  0
 31 52  1  0
 32 53  1  0
 33 54  1  0
M  CHG  1  17   1
M  END
>  <LIG_ID>  (22) 
21

>  <_smiles>  (22) 
OCC1OC(OC2=CC3=C(O)C=C(O)C=C3[O+]=C2C2=CC(O)=C(O)C(O)=C2)C(O)C(O)C1O

>  <_name>  (22) 
Delphinidin 3-O-galactoside

>  <_molecular_weight>  (22) 
465.384

>  <_formula>  (22) 
C21H21O12

>  <_logP>  (22) 
0.08759999999999984

>  <_molecular_wt_calculated>  (22) 
465.3869999999999

>  <_havy_atom_count>  (22) 
33

>  <_hydrogen_acceptors>  (22) 
11

>  <_hydrogen_donors>  (22) 
9

>  <_rotatable_bonds>  (22) 
13

>  <_amide_bonds>  (22) 
0

>  <_ring_count>  (22) 
4

$$$$
Delphinidin 3-O-glucoside
     RDKit          3D

 54 57  0  0  0  0  0  0  0  0999 V2000
    4.9656   -0.3401   -3.3357 O   0  0  0  0  0  0  0  0  0  0  0  0
    3.6220   -0.3943   -2.9359 C   0  0  0  0  0  0  0  0  0  0  0  0
    3.4855   -0.1179   -1.4299 C   0  0  1  0  0  0  0  0  0  0  0  0
    2.1023    0.0004   -1.1267 O   0  0  0  0  0  0  0  0  0  0  0  0
    1.9043    0.0717    0.2715 C   0  0  1  0  0  0  0  0  0  0  0  0
    0.6023    0.5870    0.5686 O   0  0  0  0  0  0  0  0  0  0  0  0
   -0.6421    0.1049    0.1170 C   0  0  0  0  0  0  0  0  0  0  0  0
   -0.7619   -0.9254   -0.8307 C   0  0  0  0  0  0  0  0  0  0  0  0
   -2.0278   -1.3264   -1.2880 C   0  0  0  0  0  0  0  0  0  0  0  0
   -3.1544   -0.6532   -0.7616 C   0  0  0  0  0  0  0  0  0  0  0  0
   -4.4416   -0.9948   -1.1845 C   0  0  0  0  0  0  0  0  0  0  0  0
   -4.6289   -2.0044   -2.1286 C   0  0  0  0  0  0  0  0  0  0  0  0
   -5.9200   -2.3308   -2.5379 O   0  0  0  0  0  0  0  0  0  0  0  0
   -3.5220   -2.6794   -2.6549 C   0  0  0  0  0  0  0  0  0  0  0  0
   -2.2220   -2.3553   -2.2475 C   0  0  0  0  0  0  0  0  0  0  0  0
   -1.1714   -3.0785   -2.8204 O   0  0  0  0  0  0  0  0  0  0  0  0
   -3.0059    0.3083    0.1414 O   0  0  0  0  0  3  0  0  0  0  0  0
   -1.8228    0.6987    0.6055 C   0  0  0  0  0  0  0  0  0  0  0  0
   -1.7949    1.7714    1.6255 C   0  0  0  0  0  0  0  0  0  0  0  0
   -2.6444    2.8781    1.4881 C   0  0  0  0  0  0  0  0  0  0  0  0
   -2.6563    3.9006    2.4441 C   0  0  0  0  0  0  0  0  0  0  0  0
   -3.5202    4.9774    2.2333 O   0  0  0  0  0  0  0  0  0  0  0  0
   -1.8082    3.8103    3.5737 C   0  0  0  0  0  0  0  0  0  0  0  0
   -1.7654    4.7979    4.5610 O   0  0  0  0  0  0  0  0  0  0  0  0
   -0.9759    2.6920    3.7244 C   0  0  0  0  0  0  0  0  0  0  0  0
   -0.1507    2.5948    4.8439 O   0  0  0  0  0  0  0  0  0  0  0  0
   -0.9750    1.6766    2.7603 C   0  0  0  0  0  0  0  0  0  0  0  0
    2.1264   -1.3095    0.9327 C   0  0  2  0  0  0  0  0  0  0  0  0
    2.5192   -1.1304    2.2699 O   0  0  0  0  0  0  0  0  0  0  0  0
    3.2143   -2.1216    0.1820 C   0  0  1  0  0  0  0  0  0  0  0  0
    2.6358   -3.0631   -0.6893 O   0  0  0  0  0  0  0  0  0  0  0  0
    4.2135   -1.2121   -0.5759 C   0  0  2  0  0  0  0  0  0  0  0  0
    5.0573   -0.5746    0.3513 O   0  0  0  0  0  0  0  0  0  0  0  0
    5.2141    0.6205   -3.3702 H   0  0  0  0  0  0  0  0  0  0  0  0
    3.2176   -1.4002   -3.1751 H   0  0  0  0  0  0  0  0  0  0  0  0
    3.0243    0.3490   -3.5119 H   0  0  0  0  0  0  0  0  0  0  0  0
    3.9658    0.8721   -1.2498 H   0  0  0  0  0  0  0  0  0  0  0  0
    2.6243    0.7986    0.7175 H   0  0  0  0  0  0  0  0  0  0  0  0
    0.1246   -1.3921   -1.2082 H   0  0  0  0  0  0  0  0  0  0  0  0
   -5.2996   -0.4742   -0.7770 H   0  0  0  0  0  0  0  0  0  0  0  0
   -6.0910   -3.0589   -3.2216 H   0  0  0  0  0  0  0  0  0  0  0  0
   -3.6710   -3.4635   -3.3870 H   0  0  0  0  0  0  0  0  0  0  0  0
   -0.1955   -2.9430   -2.6012 H   0  0  0  0  0  0  0  0  0  0  0  0
   -3.2956    2.9561    0.6253 H   0  0  0  0  0  0  0  0  0  0  0  0
   -3.6112    5.7614    2.8630 H   0  0  0  0  0  0  0  0  0  0  0  0
   -2.3192    5.6419    4.5417 H   0  0  0  0  0  0  0  0  0  0  0  0
    0.4634    1.8008    4.9837 H   0  0  0  0  0  0  0  0  0  0  0  0
   -0.3503    0.8055    2.9121 H   0  0  0  0  0  0  0  0  0  0  0  0
    1.1826   -1.9010    0.9166 H   0  0  0  0  0  0  0  0  0  0  0  0
    1.7123   -0.8388    2.7697 H   0  0  0  0  0  0  0  0  0  0  0  0
    3.7897   -2.7116    0.9295 H   0  0  0  0  0  0  0  0  0  0  0  0
    2.1208   -2.5708   -1.3768 H   0  0  0  0  0  0  0  0  0  0  0  0
    4.8382   -1.8609   -1.2351 H   0  0  0  0  0  0  0  0  0  0  0  0
    5.7189   -1.2493    0.6566 H   0  0  0  0  0  0  0  0  0  0  0  0
  1  2  1  0
  2  3  1  0
  3  4  1  0
  4  5  1  0
  5  6  1  0
  6  7  1  0
  7  8  2  0
  8  9  1  0
  9 10  2  0
 10 11  1  0
 11 12  2  0
 12 13  1  0
 12 14  1  0
 14 15  2  0
 15 16  1  0
 10 17  1  0
 17 18  2  0
 18 19  1  0
 19 20  2  0
 20 21  1  0
 21 22  1  0
 21 23  2  0
 23 24  1  0
 23 25  1  0
 25 26  1  0
 25 27  2  0
  5 28  1  0
 28 29  1  0
 28 30  1  0
 30 31  1  0
 30 32  1  0
 32 33  1  0
 32  3  1  0
 18  7  1  0
 27 19  1  0
 15  9  1  0
  1 34  1  0
  2 35  1  0
  2 36  1  0
  3 37  1  6
  5 38  1  1
  8 39  1  0
 11 40  1  0
 13 41  1  0
 14 42  1  0
 16 43  1  0
 20 44  1  0
 22 45  1  0
 24 46  1  0
 26 47  1  0
 27 48  1  0
 28 49  1  1
 29 50  1  0
 30 51  1  1
 31 52  1  0
 32 53  1  6
 33 54  1  0
M  CHG  1  17   1
M  END
>  <LIG_ID>  (23) 
22

>  <_smiles>  (23) 
OC[C@H]1O[C@@H](OC2=CC3=C(C=C(O)C=C3O)[O+]=C2C2=CC(O)=C(O)C(O)=C2)[C@H](O)[C@@H](O)[C@@H]1O

>  <_name>  (23) 
Delphinidin 3-O-glucoside

>  <_molecular_weight>  (23) 
465.384

>  <_formula>  (23) 
C21H21O12

>  <_logP>  (23) 
0.08759999999999984

>  <_molecular_wt_calculated>  (23) 
465.3869999999999

>  <_havy_atom_count>  (23) 
33

>  <_hydrogen_acceptors>  (23) 
11

>  <_hydrogen_donors>  (23) 
9

>  <_rotatable_bonds>  (23) 
13

>  <_amide_bonds>  (23) 
0

>  <_ring_count>  (23) 
4

$$$$
Delphinidin 3-O-arabinoside
     RDKit          3D

 50 53  0  0  0  0  0  0  0  0999 V2000
    5.4918    0.1994   -0.6627 O   0  0  0  0  0  0  0  0  0  0  0  0
    4.4919    1.1516   -0.9308 C   0  0  1  0  0  0  0  0  0  0  0  0
    3.5326    0.5872   -2.0112 C   0  0  0  0  0  0  0  0  0  0  0  0
    2.2033    0.4169   -1.5466 O   0  0  0  0  0  0  0  0  0  0  0  0
    2.1837   -0.4002   -0.3878 C   0  0  2  0  0  0  0  0  0  0  0  0
    0.8413   -0.8055   -0.0949 O   0  0  0  0  0  0  0  0  0  0  0  0
   -0.3059    0.0111   -0.0406 C   0  0  0  0  0  0  0  0  0  0  0  0
   -0.2488    1.4092   -0.1728 C   0  0  0  0  0  0  0  0  0  0  0  0
   -1.4156    2.1724   -0.0551 C   0  0  0  0  0  0  0  0  0  0  0  0
   -1.4046    3.5762   -0.1697 C   0  0  0  0  0  0  0  0  0  0  0  0
   -0.2117    4.2570   -0.4162 O   0  0  0  0  0  0  0  0  0  0  0  0
   -2.6036    4.2915   -0.0343 C   0  0  0  0  0  0  0  0  0  0  0  0
   -3.8076    3.6188    0.2153 C   0  0  0  0  0  0  0  0  0  0  0  0
   -5.0002    4.3259    0.3509 O   0  0  0  0  0  0  0  0  0  0  0  0
   -3.8164    2.2256    0.3302 C   0  0  0  0  0  0  0  0  0  0  0  0
   -2.6287    1.4998    0.1964 C   0  0  0  0  0  0  0  0  0  0  0  0
   -2.6514    0.1768    0.3069 O   0  0  0  0  0  3  0  0  0  0  0  0
   -1.5650   -0.5839    0.1889 C   0  0  0  0  0  0  0  0  0  0  0  0
   -1.7245   -2.0495    0.3233 C   0  0  0  0  0  0  0  0  0  0  0  0
   -2.5688   -2.5637    1.3186 C   0  0  0  0  0  0  0  0  0  0  0  0
   -2.7513   -3.9466    1.4552 C   0  0  0  0  0  0  0  0  0  0  0  0
   -3.5816   -4.4457    2.4578 O   0  0  0  0  0  0  0  0  0  0  0  0
   -2.0966   -4.8296    0.5795 C   0  0  0  0  0  0  0  0  0  0  0  0
   -2.2643   -6.2095    0.7030 O   0  0  0  0  0  0  0  0  0  0  0  0
   -1.2678   -4.3189   -0.4341 C   0  0  0  0  0  0  0  0  0  0  0  0
   -0.6156   -5.1684   -1.3275 O   0  0  0  0  0  0  0  0  0  0  0  0
   -1.0905   -2.9375   -0.5620 C   0  0  0  0  0  0  0  0  0  0  0  0
    2.8743    0.2886    0.8284 C   0  0  2  0  0  0  0  0  0  0  0  0
    1.9432    0.7262    1.7850 O   0  0  0  0  0  0  0  0  0  0  0  0
    3.7162    1.4937    0.3579 C   0  0  1  0  0  0  0  0  0  0  0  0
    4.5756    1.9558    1.3717 O   0  0  0  0  0  0  0  0  0  0  0  0
    6.3108    0.6985   -0.4061 H   0  0  0  0  0  0  0  0  0  0  0  0
    4.9541    2.0887   -1.3250 H   0  0  0  0  0  0  0  0  0  0  0  0
    3.9145   -0.3719   -2.4287 H   0  0  0  0  0  0  0  0  0  0  0  0
    3.5013    1.2990   -2.8635 H   0  0  0  0  0  0  0  0  0  0  0  0
    2.7394   -1.3439   -0.5991 H   0  0  0  0  0  0  0  0  0  0  0  0
    0.6931    1.9075   -0.3383 H   0  0  0  0  0  0  0  0  0  0  0  0
   -0.1838    5.2664   -0.5015 H   0  0  0  0  0  0  0  0  0  0  0  0
   -2.5995    5.3707   -0.1223 H   0  0  0  0  0  0  0  0  0  0  0  0
   -5.0289    5.3359    0.2734 H   0  0  0  0  0  0  0  0  0  0  0  0
   -4.7474    1.7071    0.5233 H   0  0  0  0  0  0  0  0  0  0  0  0
   -3.0766   -1.8901    1.9987 H   0  0  0  0  0  0  0  0  0  0  0  0
   -4.0654   -3.8310    3.1020 H   0  0  0  0  0  0  0  0  0  0  0  0
   -2.8527   -6.6200    1.4180 H   0  0  0  0  0  0  0  0  0  0  0  0
   -0.7108   -6.1758   -1.2806 H   0  0  0  0  0  0  0  0  0  0  0  0
   -0.4746   -2.5615   -1.3694 H   0  0  0  0  0  0  0  0  0  0  0  0
    3.5596   -0.4559    1.3002 H   0  0  0  0  0  0  0  0  0  0  0  0
    1.6757   -0.0709    2.3132 H   0  0  0  0  0  0  0  0  0  0  0  0
    3.0227    2.3286    0.1139 H   0  0  0  0  0  0  0  0  0  0  0  0
    5.1353    1.1941    1.6736 H   0  0  0  0  0  0  0  0  0  0  0  0
  1  2  1  0
  2  3  1  0
  3  4  1  0
  4  5  1  0
  5  6  1  0
  6  7  1  0
  7  8  2  0
  8  9  1  0
  9 10  2  0
 10 11  1  0
 10 12  1  0
 12 13  2  0
 13 14  1  0
 13 15  1  0
 15 16  2  0
 16 17  1  0
 17 18  2  0
 18 19  1  0
 19 20  2  0
 20 21  1  0
 21 22  1  0
 21 23  2  0
 23 24  1  0
 23 25  1  0
 25 26  1  0
 25 27  2  0
  5 28  1  0
 28 29  1  0
 28 30  1  0
 30 31  1  0
 30  2  1  0
 18  7  1  0
 27 19  1  0
 16  9  1  0
  1 32  1  0
  2 33  1  6
  3 34  1  0
  3 35  1  0
  5 36  1  6
  8 37  1  0
 11 38  1  0
 12 39  1  0
 14 40  1  0
 15 41  1  0
 20 42  1  0
 22 43  1  0
 24 44  1  0
 26 45  1  0
 27 46  1  0
 28 47  1  1
 29 48  1  0
 30 49  1  6
 31 50  1  0
M  CHG  1  17   1
M  END
>  <LIG_ID>  (24) 
23

>  <_smiles>  (24) 
O[C@H]1CO[C@H](OC2=CC3=C(O)C=C(O)C=C3[O+]=C2C2=CC(O)=C(O)C(O)=C2)[C@H](O)[C@H]1O

>  <_name>  (24) 
Delphinidin 3-O-arabinoside

>  <_molecular_weight>  (24) 
435.358

>  <_formula>  (24) 
C20H19O11

>  <_logP>  (24) 
0.7266999999999999

>  <_molecular_wt_calculated>  (24) 
435.3609999999999

>  <_havy_atom_count>  (24) 
31

>  <_hydrogen_acceptors>  (24) 
10

>  <_hydrogen_donors>  (24) 
8

>  <_rotatable_bonds>  (24) 
11

>  <_amide_bonds>  (24) 
0

>  <_ring_count>  (24) 
4

$$$$
Petunidin 3-O-galactoside
     RDKit          3D

 57 60  0  0  0  0  0  0  0  0999 V2000
   -5.2273   -2.4894   -2.5737 C   0  0  0  0  0  0  0  0  0  0  0  0
   -4.2077   -3.3644   -2.1023 O   0  0  0  0  0  0  0  0  0  0  0  0
   -3.1200   -2.9667   -1.3081 C   0  0  0  0  0  0  0  0  0  0  0  0
   -2.1815   -3.9362   -0.9087 C   0  0  0  0  0  0  0  0  0  0  0  0
   -2.3209   -5.2698   -1.2956 O   0  0  0  0  0  0  0  0  0  0  0  0
   -1.0913   -3.5722   -0.1085 C   0  0  0  0  0  0  0  0  0  0  0  0
   -0.1744   -4.5431    0.2911 O   0  0  0  0  0  0  0  0  0  0  0  0
   -0.9275   -2.2408    0.2902 C   0  0  0  0  0  0  0  0  0  0  0  0
   -1.8404   -1.2569   -0.1204 C   0  0  0  0  0  0  0  0  0  0  0  0
   -2.9441   -1.6290   -0.9023 C   0  0  0  0  0  0  0  0  0  0  0  0
   -1.6872    0.1526    0.3046 C   0  0  0  0  0  0  0  0  0  0  0  0
   -2.7683    0.8030    0.7238 O   0  0  0  0  0  3  0  0  0  0  0  0
   -2.7441    2.0614    1.1465 C   0  0  0  0  0  0  0  0  0  0  0  0
   -1.5314    2.7897    1.1725 C   0  0  0  0  0  0  0  0  0  0  0  0
   -0.3740    2.1373    0.7166 C   0  0  0  0  0  0  0  0  0  0  0  0
   -0.4424    0.8091    0.2625 C   0  0  0  0  0  0  0  0  0  0  0  0
    0.6766    0.1304   -0.2557 O   0  0  0  0  0  0  0  0  0  0  0  0
    2.0147    0.6286   -0.3114 C   0  0  0  0  0  0  0  0  0  0  0  0
    2.7453   -0.2039   -1.2029 O   0  0  0  0  0  0  0  0  0  0  0  0
    4.1321    0.0550   -1.1099 C   0  0  0  0  0  0  0  0  0  0  0  0
    4.8332   -0.4720   -2.3730 C   0  0  0  0  0  0  0  0  0  0  0  0
    6.2203   -0.2797   -2.2934 O   0  0  0  0  0  0  0  0  0  0  0  0
    4.6860   -0.5535    0.2111 C   0  0  0  0  0  0  0  0  0  0  0  0
    5.1715   -1.8660    0.0503 O   0  0  0  0  0  0  0  0  0  0  0  0
    3.6324   -0.4823    1.3543 C   0  0  0  0  0  0  0  0  0  0  0  0
    2.9535   -1.7038    1.5316 O   0  0  0  0  0  0  0  0  0  0  0  0
    2.6256    0.6701    1.1279 C   0  0  0  0  0  0  0  0  0  0  0  0
    3.2723    1.9044    1.3153 O   0  0  0  0  0  0  0  0  0  0  0  0
   -1.5388    4.1300    1.6415 C   0  0  0  0  0  0  0  0  0  0  0  0
   -0.3901    4.9237    1.7133 O   0  0  0  0  0  0  0  0  0  0  0  0
   -2.7449    4.7057    2.0599 C   0  0  0  0  0  0  0  0  0  0  0  0
   -3.9372    3.9798    2.0260 C   0  0  0  0  0  0  0  0  0  0  0  0
   -5.1202    4.5817    2.4493 O   0  0  0  0  0  0  0  0  0  0  0  0
   -3.9342    2.6584    1.5701 C   0  0  0  0  0  0  0  0  0  0  0  0
   -4.7857   -1.7010   -3.2193 H   0  0  0  0  0  0  0  0  0  0  0  0
   -5.7615   -2.0282   -1.7163 H   0  0  0  0  0  0  0  0  0  0  0  0
   -5.9559   -3.0722   -3.1736 H   0  0  0  0  0  0  0  0  0  0  0  0
   -3.0900   -5.5882   -1.8727 H   0  0  0  0  0  0  0  0  0  0  0  0
    0.6260   -4.3116    0.8680 H   0  0  0  0  0  0  0  0  0  0  0  0
   -0.1004   -1.9816    0.9387 H   0  0  0  0  0  0  0  0  0  0  0  0
   -3.6537   -0.8691   -1.2020 H   0  0  0  0  0  0  0  0  0  0  0  0
    0.5724    2.6461    0.6984 H   0  0  0  0  0  0  0  0  0  0  0  0
    1.9867    1.6506   -0.7529 H   0  0  0  0  0  0  0  0  0  0  0  0
    4.3174    1.1569   -1.0989 H   0  0  0  0  0  0  0  0  0  0  0  0
    4.6260   -1.5538   -2.5102 H   0  0  0  0  0  0  0  0  0  0  0  0
    4.4270    0.0507   -3.2690 H   0  0  0  0  0  0  0  0  0  0  0  0
    6.3819    0.6888   -2.4406 H   0  0  0  0  0  0  0  0  0  0  0  0
    5.5526    0.0755    0.5136 H   0  0  0  0  0  0  0  0  0  0  0  0
    4.4456   -2.4146   -0.3453 H   0  0  0  0  0  0  0  0  0  0  0  0
    4.1756   -0.2846    2.3046 H   0  0  0  0  0  0  0  0  0  0  0  0
    2.4200   -1.8835    0.7154 H   0  0  0  0  0  0  0  0  0  0  0  0
    1.8091    0.5738    1.8819 H   0  0  0  0  0  0  0  0  0  0  0  0
    3.3687    2.0363    2.2948 H   0  0  0  0  0  0  0  0  0  0  0  0
    0.5366    4.6145    1.4590 H   0  0  0  0  0  0  0  0  0  0  0  0
   -2.7544    5.7283    2.4166 H   0  0  0  0  0  0  0  0  0  0  0  0
   -6.0022    4.0828    2.4378 H   0  0  0  0  0  0  0  0  0  0  0  0
   -4.8576    2.0928    1.5453 H   0  0  0  0  0  0  0  0  0  0  0  0
  1  2  1  0
  2  3  1  0
  3  4  2  0
  4  5  1  0
  4  6  1  0
  6  7  1  0
  6  8  2  0
  8  9  1  0
  9 10  2  0
  9 11  1  0
 11 12  2  0
 12 13  1  0
 13 14  2  0
 14 15  1  0
 15 16  2  0
 16 17  1  0
 17 18  1  0
 18 19  1  0
 19 20  1  0
 20 21  1  0
 21 22  1  0
 20 23  1  0
 23 24  1  0
 23 25  1  0
 25 26  1  0
 25 27  1  0
 27 28  1  0
 14 29  1  0
 29 30  1  0
 29 31  2  0
 31 32  1  0
 32 33  1  0
 32 34  2  0
 10  3  1  0
 16 11  1  0
 27 18  1  0
 34 13  1  0
  1 35  1  0
  1 36  1  0
  1 37  1  0
  5 38  1  0
  7 39  1  0
  8 40  1  0
 10 41  1  0
 15 42  1  0
 18 43  1  0
 20 44  1  0
 21 45  1  0
 21 46  1  0
 22 47  1  0
 23 48  1  0
 24 49  1  0
 25 50  1  0
 26 51  1  0
 27 52  1  0
 28 53  1  0
 30 54  1  0
 31 55  1  0
 33 56  1  0
 34 57  1  0
M  CHG  1  12   1
M  END
>  <LIG_ID>  (25) 
24

>  <_smiles>  (25) 
COC1=C(O)C(O)=CC(=C1)C1=[O+]C2=C(C=C1OC1OC(CO)C(O)C(O)C1O)C(O)=CC(O)=C2

>  <_name>  (25) 
Petunidin 3-O-galactoside

>  <_molecular_weight>  (25) 
479.411

>  <_formula>  (25) 
C22H23O12

>  <_logP>  (25) 
0.3905999999999992

>  <_molecular_wt_calculated>  (25) 
479.4139999999999

>  <_havy_atom_count>  (25) 
34

>  <_hydrogen_acceptors>  (25) 
11

>  <_hydrogen_donors>  (25) 
8

>  <_rotatable_bonds>  (25) 
14

>  <_amide_bonds>  (25) 
0

>  <_ring_count>  (25) 
4

$$$$
Cyanidin 3-O-arabinoside
     RDKit          3D

 49 52  0  0  0  0  0  0  0  0999 V2000
    3.6390   -0.6421   -0.6485 C   0  0  2  0  0  0  0  0  0  0  0  0
    4.0996    0.5510   -1.4915 C   0  0  0  0  0  0  0  0  0  0  0  0
    4.0480    0.2145   -2.8500 O   0  0  0  0  0  0  0  0  0  0  0  0
    2.3121   -0.9870   -0.9773 O   0  0  0  0  0  0  0  0  0  0  0  0
    1.7837   -1.6382    0.1564 C   0  0  2  0  0  0  0  0  0  0  0  0
    0.3763   -1.4002    0.2942 O   0  0  0  0  0  0  0  0  0  0  0  0
   -0.3320   -0.2006    0.0811 C   0  0  0  0  0  0  0  0  0  0  0  0
    0.3032    1.0317   -0.1432 C   0  0  0  0  0  0  0  0  0  0  0  0
   -0.4565    2.1958   -0.3004 C   0  0  0  0  0  0  0  0  0  0  0  0
   -1.8598    2.0900   -0.2233 C   0  0  0  0  0  0  0  0  0  0  0  0
   -2.6562    3.2305   -0.3653 C   0  0  0  0  0  0  0  0  0  0  0  0
   -2.0664    4.4790   -0.5839 C   0  0  0  0  0  0  0  0  0  0  0  0
   -2.8750    5.6047   -0.7236 O   0  0  0  0  0  0  0  0  0  0  0  0
   -0.6712    4.5886   -0.6603 C   0  0  0  0  0  0  0  0  0  0  0  0
    0.1398    3.4529   -0.5186 C   0  0  0  0  0  0  0  0  0  0  0  0
    1.5278    3.5746   -0.5948 O   0  0  0  0  0  0  0  0  0  0  0  0
   -2.4322    0.9102   -0.0158 O   0  0  0  0  0  3  0  0  0  0  0  0
   -1.7431   -0.2204    0.1248 C   0  0  0  0  0  0  0  0  0  0  0  0
   -2.5014   -1.4733    0.3403 C   0  0  0  0  0  0  0  0  0  0  0  0
   -2.1726   -2.6552   -0.3477 C   0  0  0  0  0  0  0  0  0  0  0  0
   -2.9138   -3.8255   -0.1479 C   0  0  0  0  0  0  0  0  0  0  0  0
   -2.5548   -4.9810   -0.8412 O   0  0  0  0  0  0  0  0  0  0  0  0
   -4.0045   -3.8197    0.7377 C   0  0  0  0  0  0  0  0  0  0  0  0
   -4.7441   -4.9831    0.9442 O   0  0  0  0  0  0  0  0  0  0  0  0
   -4.3478   -2.6383    1.4083 C   0  0  0  0  0  0  0  0  0  0  0  0
   -3.6066   -1.4716    1.2051 C   0  0  0  0  0  0  0  0  0  0  0  0
    2.6011   -1.2527    1.3985 C   0  0  2  0  0  0  0  0  0  0  0  0
    1.8349   -0.6563    2.4191 O   0  0  0  0  0  0  0  0  0  0  0  0
    3.6874   -0.3440    0.8510 C   0  0  1  0  0  0  0  0  0  0  0  0
    4.9361   -0.6816    1.3970 O   0  0  0  0  0  0  0  0  0  0  0  0
    4.2978   -1.5118   -0.8793 H   0  0  0  0  0  0  0  0  0  0  0  0
    5.1445    0.8165   -1.2157 H   0  0  0  0  0  0  0  0  0  0  0  0
    3.4458    1.4306   -1.3005 H   0  0  0  0  0  0  0  0  0  0  0  0
    4.3519    1.0194   -3.3448 H   0  0  0  0  0  0  0  0  0  0  0  0
    1.9044   -2.7328   -0.0032 H   0  0  0  0  0  0  0  0  0  0  0  0
    1.3760    1.1001   -0.1593 H   0  0  0  0  0  0  0  0  0  0  0  0
   -3.7344    3.1472   -0.3059 H   0  0  0  0  0  0  0  0  0  0  0  0
   -2.4800    6.5242   -0.8828 H   0  0  0  0  0  0  0  0  0  0  0  0
   -0.2169    5.5569   -0.8291 H   0  0  0  0  0  0  0  0  0  0  0  0
    1.9752    4.4700   -0.7520 H   0  0  0  0  0  0  0  0  0  0  0  0
   -1.3558   -2.6678   -1.0585 H   0  0  0  0  0  0  0  0  0  0  0  0
   -3.0600   -5.8523   -0.7330 H   0  0  0  0  0  0  0  0  0  0  0  0
   -5.5356   -5.0035    1.5767 H   0  0  0  0  0  0  0  0  0  0  0  0
   -5.1907   -2.6229    2.0874 H   0  0  0  0  0  0  0  0  0  0  0  0
   -3.8882   -0.5689    1.7337 H   0  0  0  0  0  0  0  0  0  0  0  0
    3.0620   -2.1760    1.8172 H   0  0  0  0  0  0  0  0  0  0  0  0
    1.5431    0.2405    2.1175 H   0  0  0  0  0  0  0  0  0  0  0  0
    3.4503    0.7268    1.0546 H   0  0  0  0  0  0  0  0  0  0  0  0
    5.5591    0.0512    1.1525 H   0  0  0  0  0  0  0  0  0  0  0  0
  1  2  1  0
  2  3  1  0
  1  4  1  0
  4  5  1  0
  5  6  1  0
  6  7  1  0
  7  8  2  0
  8  9  1  0
  9 10  2  0
 10 11  1  0
 11 12  2  0
 12 13  1  0
 12 14  1  0
 14 15  2  0
 15 16  1  0
 10 17  1  0
 17 18  2  0
 18 19  1  0
 19 20  2  0
 20 21  1  0
 21 22  1  0
 21 23  2  0
 23 24  1  0
 23 25  1  0
 25 26  2  0
  5 27  1  0
 27 28  1  0
 27 29  1  0
 29 30  1  0
 29  1  1  0
 18  7  1  0
 26 19  1  0
 15  9  1  0
  1 31  1  1
  2 32  1  0
  2 33  1  0
  3 34  1  0
  5 35  1  6
  8 36  1  0
 11 37  1  0
 13 38  1  0
 14 39  1  0
 16 40  1  0
 20 41  1  0
 22 42  1  0
 24 43  1  0
 25 44  1  0
 26 45  1  0
 27 46  1  1
 28 47  1  0
 29 48  1  6
 30 49  1  0
M  CHG  1  17   1
M  END
>  <LIG_ID>  (26) 
25

>  <_smiles>  (26) 
[H][C@@]1(CO)O[C@]([H])(OC2=CC3=C(C=C(O)C=C3O)[O+]=C2C2=CC(O)=C(O)C=C2)[C@]([H])(O)[C@@]1([H])O

>  <_name>  (26) 
Cyanidin 3-O-arabinoside

>  <_molecular_weight>  (26) 
419.359

>  <_formula>  (26) 
C20H19O10

>  <_logP>  (26) 
1.0211000000000001

>  <_molecular_wt_calculated>  (26) 
419.36199999999985

>  <_havy_atom_count>  (26) 
30

>  <_hydrogen_acceptors>  (26) 
9

>  <_hydrogen_donors>  (26) 
7

>  <_rotatable_bonds>  (26) 
11

>  <_amide_bonds>  (26) 
0

>  <_ring_count>  (26) 
4

$$$$
Petunidin 3-O-glucoside
     RDKit          3D

 57 60  0  0  0  0  0  0  0  0999 V2000
    0.0888   -3.3026   -2.9126 C   0  0  0  0  0  0  0  0  0  0  0  0
   -0.7714   -2.5324   -3.7466 O   0  0  0  0  0  0  0  0  0  0  0  0
   -1.4354   -1.3642   -3.3396 C   0  0  0  0  0  0  0  0  0  0  0  0
   -2.2144   -0.6760   -4.2806 C   0  0  0  0  0  0  0  0  0  0  0  0
   -2.3023   -1.1722   -5.5819 O   0  0  0  0  0  0  0  0  0  0  0  0
   -2.8964    0.4953   -3.9106 C   0  0  0  0  0  0  0  0  0  0  0  0
   -3.6769    1.1731   -4.8460 O   0  0  0  0  0  0  0  0  0  0  0  0
   -2.7900    0.9813   -2.6013 C   0  0  0  0  0  0  0  0  0  0  0  0
   -1.9987    0.3149   -1.6551 C   0  0  0  0  0  0  0  0  0  0  0  0
   -1.3424   -0.8714   -2.0245 C   0  0  0  0  0  0  0  0  0  0  0  0
   -1.9147    0.8422   -0.2733 C   0  0  0  0  0  0  0  0  0  0  0  0
   -3.0293    1.3033    0.2904 O   0  0  0  0  0  3  0  0  0  0  0  0
   -3.0736    1.7846    1.5273 C   0  0  0  0  0  0  0  0  0  0  0  0
   -1.9049    1.8332    2.3151 C   0  0  0  0  0  0  0  0  0  0  0  0
   -0.7086    1.3737    1.7526 C   0  0  0  0  0  0  0  0  0  0  0  0
   -0.6973    0.8727    0.4404 C   0  0  0  0  0  0  0  0  0  0  0  0
    0.4840    0.4464   -0.1926 O   0  0  0  0  0  0  0  0  0  0  0  0
    1.7107    0.0931    0.4499 C   0  0  2  0  0  0  0  0  0  0  0  0
    2.6966   -0.0474   -0.5535 O   0  0  0  0  0  0  0  0  0  0  0  0
    3.9943   -0.1079    0.0199 C   0  0  2  0  0  0  0  0  0  0  0  0
    4.9992   -0.3761   -1.1074 C   0  0  0  0  0  0  0  0  0  0  0  0
    6.3092   -0.2489   -0.6261 O   0  0  0  0  0  0  0  0  0  0  0  0
    4.1039   -1.1841    1.1490 C   0  0  1  0  0  0  0  0  0  0  0  0
    4.2656   -0.5309    2.3838 O   0  0  0  0  0  0  0  0  0  0  0  0
    2.8476   -2.0826    1.2040 C   0  0  2  0  0  0  0  0  0  0  0  0
    2.8543   -3.0153    0.1489 O   0  0  0  0  0  0  0  0  0  0  0  0
    1.5399   -1.2466    1.2117 C   0  0  1  0  0  0  0  0  0  0  0  0
    1.1573   -0.9773    2.5363 O   0  0  0  0  0  0  0  0  0  0  0  0
   -1.9659    2.3451    3.6258 C   0  0  0  0  0  0  0  0  0  0  0  0
   -0.8189    2.4006    4.4184 O   0  0  0  0  0  0  0  0  0  0  0  0
   -3.1909    2.8010    4.1350 C   0  0  0  0  0  0  0  0  0  0  0  0
   -4.3483    2.7521    3.3513 C   0  0  0  0  0  0  0  0  0  0  0  0
   -5.5536    3.2111    3.8778 O   0  0  0  0  0  0  0  0  0  0  0  0
   -4.2875    2.2437    2.0475 C   0  0  0  0  0  0  0  0  0  0  0  0
    0.4947   -4.1532   -3.4973 H   0  0  0  0  0  0  0  0  0  0  0  0
    0.9359   -2.6778   -2.5586 H   0  0  0  0  0  0  0  0  0  0  0  0
   -0.4777   -3.7052   -2.0465 H   0  0  0  0  0  0  0  0  0  0  0  0
   -2.8516   -0.7130   -6.2985 H   0  0  0  0  0  0  0  0  0  0  0  0
   -4.1788    2.0200   -4.6055 H   0  0  0  0  0  0  0  0  0  0  0  0
   -3.3156    1.8879   -2.3258 H   0  0  0  0  0  0  0  0  0  0  0  0
   -0.7813   -1.4203   -1.2821 H   0  0  0  0  0  0  0  0  0  0  0  0
    0.2041    1.4342    2.3259 H   0  0  0  0  0  0  0  0  0  0  0  0
    2.0038    0.9144    1.1441 H   0  0  0  0  0  0  0  0  0  0  0  0
    4.2481    0.8972    0.4317 H   0  0  0  0  0  0  0  0  0  0  0  0
    4.8354    0.3624   -1.9243 H   0  0  0  0  0  0  0  0  0  0  0  0
    4.8418   -1.3980   -1.5199 H   0  0  0  0  0  0  0  0  0  0  0  0
    6.9051   -0.4465   -1.3947 H   0  0  0  0  0  0  0  0  0  0  0  0
    4.9900   -1.8403    0.9749 H   0  0  0  0  0  0  0  0  0  0  0  0
    4.6241   -1.2005    3.0236 H   0  0  0  0  0  0  0  0  0  0  0  0
    2.8932   -2.6792    2.1419 H   0  0  0  0  0  0  0  0  0  0  0  0
    2.7153   -2.5263   -0.7018 H   0  0  0  0  0  0  0  0  0  0  0  0
    0.7384   -1.8415    0.7118 H   0  0  0  0  0  0  0  0  0  0  0  0
    0.7260   -1.8004    2.8863 H   0  0  0  0  0  0  0  0  0  0  0  0
   -0.8433    2.7650    5.3636 H   0  0  0  0  0  0  0  0  0  0  0  0
   -3.2447    3.1953    5.1422 H   0  0  0  0  0  0  0  0  0  0  0  0
   -6.4102    3.1898    3.3369 H   0  0  0  0  0  0  0  0  0  0  0  0
   -5.1825    2.2047    1.4388 H   0  0  0  0  0  0  0  0  0  0  0  0
  1  2  1  0
  2  3  1  0
  3  4  2  0
  4  5  1  0
  4  6  1  0
  6  7  1  0
  6  8  2  0
  8  9  1  0
  9 10  2  0
  9 11  1  0
 11 12  2  0
 12 13  1  0
 13 14  2  0
 14 15  1  0
 15 16  2  0
 16 17  1  0
 17 18  1  0
 18 19  1  0
 19 20  1  0
 20 21  1  0
 21 22  1  0
 20 23  1  0
 23 24  1  0
 23 25  1  0
 25 26  1  0
 25 27  1  0
 27 28  1  0
 14 29  1  0
 29 30  1  0
 29 31  2  0
 31 32  1  0
 32 33  1  0
 32 34  2  0
 10  3  1  0
 16 11  1  0
 27 18  1  0
 34 13  1  0
  1 35  1  0
  1 36  1  0
  1 37  1  0
  5 38  1  0
  7 39  1  0
  8 40  1  0
 10 41  1  0
 15 42  1  0
 18 43  1  1
 20 44  1  1
 21 45  1  0
 21 46  1  0
 22 47  1  0
 23 48  1  6
 24 49  1  0
 25 50  1  1
 26 51  1  0
 27 52  1  6
 28 53  1  0
 30 54  1  0
 31 55  1  0
 33 56  1  0
 34 57  1  0
M  CHG  1  12   1
M  END
>  <LIG_ID>  (27) 
26

>  <_smiles>  (27) 
COC1=C(O)C(O)=CC(=C1)C1=[O+]C2=C(C=C1O[C@@H]1O[C@H](CO)[C@@H](O)[C@H](O)[C@H]1O)C(O)=CC(O)=C2

>  <_name>  (27) 
Petunidin 3-O-glucoside

>  <_molecular_weight>  (27) 
479.411

>  <_formula>  (27) 
C22H23O12

>  <_logP>  (27) 
0.3905999999999992

>  <_molecular_wt_calculated>  (27) 
479.4139999999999

>  <_havy_atom_count>  (27) 
34

>  <_hydrogen_acceptors>  (27) 
11

>  <_hydrogen_donors>  (27) 
8

>  <_rotatable_bonds>  (27) 
14

>  <_amide_bonds>  (27) 
0

>  <_ring_count>  (27) 
4

$$$$
Peonidin 3-O-galactoside
     RDKit          3D

 56 59  0  0  0  0  0  0  0  0999 V2000
    2.3987   -1.6933   -2.5454 C   0  0  1  0  0  0  0  0  0  0  0  0
    2.3889   -3.1177   -3.1209 C   0  0  0  0  0  0  0  0  0  0  0  0
    1.2324   -3.3104   -3.8883 O   0  0  0  0  0  0  0  0  0  0  0  0
    1.1766   -1.4999   -1.8425 O   0  0  0  0  0  0  0  0  0  0  0  0
    1.1744   -0.2692   -1.1443 C   0  0  1  0  0  0  0  0  0  0  0  0
   -0.1595   -0.0305   -0.6912 O   0  0  0  0  0  0  0  0  0  0  0  0
   -0.6393    1.1463   -0.0892 C   0  0  0  0  0  0  0  0  0  0  0  0
    0.0091    2.3831   -0.2356 C   0  0  0  0  0  0  0  0  0  0  0  0
   -0.5358    3.5404    0.3444 C   0  0  0  0  0  0  0  0  0  0  0  0
   -1.7550    3.4054    1.0491 C   0  0  0  0  0  0  0  0  0  0  0  0
   -2.3611    4.5225    1.6297 C   0  0  0  0  0  0  0  0  0  0  0  0
   -1.7706    5.7816    1.5210 C   0  0  0  0  0  0  0  0  0  0  0  0
   -2.3914    6.8838    2.1047 O   0  0  0  0  0  0  0  0  0  0  0  0
   -0.5626    5.9267    0.8301 C   0  0  0  0  0  0  0  0  0  0  0  0
    0.0668    4.8221    0.2428 C   0  0  0  0  0  0  0  0  0  0  0  0
    1.2781    5.0492   -0.4174 O   0  0  0  0  0  0  0  0  0  0  0  0
   -2.3392    2.2191    1.1688 O   0  0  0  0  0  3  0  0  0  0  0  0
   -1.8362    1.1017    0.6527 C   0  0  0  0  0  0  0  0  0  0  0  0
   -2.5721   -0.1647    0.8752 C   0  0  0  0  0  0  0  0  0  0  0  0
   -1.8968   -1.3527    1.2086 C   0  0  0  0  0  0  0  0  0  0  0  0
   -2.6076   -2.5509    1.4127 C   0  0  0  0  0  0  0  0  0  0  0  0
   -1.9609   -3.7599    1.7145 O   0  0  0  0  0  0  0  0  0  0  0  0
   -0.5476   -3.9184    1.7972 C   0  0  0  0  0  0  0  0  0  0  0  0
   -4.0058   -2.5449    1.3135 C   0  0  0  0  0  0  0  0  0  0  0  0
   -4.7162   -3.7267    1.5172 O   0  0  0  0  0  0  0  0  0  0  0  0
   -4.6838   -1.3562    1.0135 C   0  0  0  0  0  0  0  0  0  0  0  0
   -3.9726   -0.1737    0.8000 C   0  0  0  0  0  0  0  0  0  0  0  0
    2.1406   -0.3457    0.0703 C   0  0  2  0  0  0  0  0  0  0  0  0
    2.7175    0.9177    0.2816 O   0  0  0  0  0  0  0  0  0  0  0  0
    3.2528   -1.3949   -0.1591 C   0  0  1  0  0  0  0  0  0  0  0  0
    2.7849   -2.6614    0.2352 O   0  0  0  0  0  0  0  0  0  0  0  0
    3.6504   -1.4118   -1.6448 C   0  0  1  0  0  0  0  0  0  0  0  0
    4.6870   -2.3394   -1.8495 O   0  0  0  0  0  0  0  0  0  0  0  0
    2.4287   -0.9977   -3.4156 H   0  0  0  0  0  0  0  0  0  0  0  0
    3.2810   -3.2707   -3.7683 H   0  0  0  0  0  0  0  0  0  0  0  0
    2.4114   -3.8567   -2.2885 H   0  0  0  0  0  0  0  0  0  0  0  0
    1.2718   -4.2463   -4.2162 H   0  0  0  0  0  0  0  0  0  0  0  0
    1.4711    0.5471   -1.8427 H   0  0  0  0  0  0  0  0  0  0  0  0
    0.9053    2.4348   -0.8253 H   0  0  0  0  0  0  0  0  0  0  0  0
   -3.2953    4.4117    2.1667 H   0  0  0  0  0  0  0  0  0  0  0  0
   -1.9891    7.8119    2.0448 H   0  0  0  0  0  0  0  0  0  0  0  0
   -0.1047    6.9050    0.7509 H   0  0  0  0  0  0  0  0  0  0  0  0
    1.8413    4.3283   -0.8442 H   0  0  0  0  0  0  0  0  0  0  0  0
   -0.8236   -1.3370    1.3296 H   0  0  0  0  0  0  0  0  0  0  0  0
   -0.3141   -4.9792    2.0215 H   0  0  0  0  0  0  0  0  0  0  0  0
   -0.1388   -3.2849    2.6125 H   0  0  0  0  0  0  0  0  0  0  0  0
   -0.0750   -3.6469    0.8291 H   0  0  0  0  0  0  0  0  0  0  0  0
   -5.7272   -3.7557    1.4533 H   0  0  0  0  0  0  0  0  0  0  0  0
   -5.7640   -1.3489    0.9417 H   0  0  0  0  0  0  0  0  0  0  0  0
   -4.5155    0.7330    0.5619 H   0  0  0  0  0  0  0  0  0  0  0  0
    1.5596   -0.6419    0.9762 H   0  0  0  0  0  0  0  0  0  0  0  0
    3.0344    0.9380    1.2224 H   0  0  0  0  0  0  0  0  0  0  0  0
    4.1420   -1.1217    0.4574 H   0  0  0  0  0  0  0  0  0  0  0  0
    3.5832   -3.2319    0.3861 H   0  0  0  0  0  0  0  0  0  0  0  0
    4.0305   -0.3900   -1.8876 H   0  0  0  0  0  0  0  0  0  0  0  0
    5.1428   -2.0775   -2.6919 H   0  0  0  0  0  0  0  0  0  0  0  0
  1  2  1  0
  2  3  1  0
  1  4  1  0
  4  5  1  0
  5  6  1  0
  6  7  1  0
  7  8  2  0
  8  9  1  0
  9 10  2  0
 10 11  1  0
 11 12  2  0
 12 13  1  0
 12 14  1  0
 14 15  2  0
 15 16  1  0
 10 17  1  0
 17 18  2  0
 18 19  1  0
 19 20  2  0
 20 21  1  0
 21 22  1  0
 22 23  1  0
 21 24  2  0
 24 25  1  0
 24 26  1  0
 26 27  2  0
  5 28  1  0
 28 29  1  0
 28 30  1  0
 30 31  1  0
 30 32  1  0
 32 33  1  0
 32  1  1  0
 18  7  1  0
 27 19  1  0
 15  9  1  0
  1 34  1  6
  2 35  1  0
  2 36  1  0
  3 37  1  0
  5 38  1  6
  8 39  1  0
 11 40  1  0
 13 41  1  0
 14 42  1  0
 16 43  1  0
 20 44  1  0
 23 45  1  0
 23 46  1  0
 23 47  1  0
 25 48  1  0
 26 49  1  0
 27 50  1  0
 28 51  1  1
 29 52  1  0
 30 53  1  1
 31 54  1  0
 32 55  1  6
 33 56  1  0
M  CHG  1  17   1
M  END
>  <LIG_ID>  (28) 
27

>  <_smiles>  (28) 
[H][C@]1(CO)O[C@@]([H])(OC2=CC3=C(C=C(O)C=C3O)[O+]=C2C2=CC(OC)=C(O)C=C2)[C@]([H])(O)[C@@]([H])(O)[C@@]1([H])O

>  <_name>  (28) 
Peonidin 3-O-galactoside

>  <_molecular_weight>  (28) 
463.411

>  <_formula>  (28) 
C22H23O11

>  <_logP>  (28) 
0.6849999999999994

>  <_molecular_wt_calculated>  (28) 
463.41499999999985

>  <_havy_atom_count>  (28) 
33

>  <_hydrogen_acceptors>  (28) 
10

>  <_hydrogen_donors>  (28) 
7

>  <_rotatable_bonds>  (28) 
13

>  <_amide_bonds>  (28) 
0

>  <_ring_count>  (28) 
4

$$$$
Petunidin 3-O-arabinoside
     RDKit          3D

 53 56  0  0  0  0  0  0  0  0999 V2000
   -4.9865   -0.9911   -0.6503 C   0  0  2  0  0  0  0  0  0  0  0  0
   -6.1527   -1.2445   -1.3909 O   0  0  0  0  0  0  0  0  0  0  0  0
   -4.1466    0.1103   -1.3491 C   0  0  0  0  0  0  0  0  0  0  0  0
   -2.7503   -0.1493   -1.3319 O   0  0  0  0  0  0  0  0  0  0  0  0
   -2.3374   -0.5388   -0.0351 C   0  0  2  0  0  0  0  0  0  0  0  0
   -0.9126   -0.5009    0.0407 O   0  0  0  0  0  0  0  0  0  0  0  0
   -0.1212    0.6515   -0.1005 C   0  0  0  0  0  0  0  0  0  0  0  0
   -0.6830    1.9317   -0.2375 C   0  0  0  0  0  0  0  0  0  0  0  0
    0.1491    3.0537   -0.3230 C   0  0  0  0  0  0  0  0  0  0  0  0
   -0.3664    4.3576   -0.4548 C   0  0  0  0  0  0  0  0  0  0  0  0
   -1.7440    4.5717   -0.5133 O   0  0  0  0  0  0  0  0  0  0  0  0
    0.5148    5.4467   -0.5273 C   0  0  0  0  0  0  0  0  0  0  0  0
    1.9004    5.2444   -0.4683 C   0  0  0  0  0  0  0  0  0  0  0  0
    2.7783    6.3238   -0.5391 O   0  0  0  0  0  0  0  0  0  0  0  0
    2.4106    3.9495   -0.3373 C   0  0  0  0  0  0  0  0  0  0  0  0
    1.5443    2.8544   -0.2654 C   0  0  0  0  0  0  0  0  0  0  0  0
    2.0429    1.6292   -0.1449 O   0  0  0  0  0  3  0  0  0  0  0  0
    1.2845    0.5369   -0.0747 C   0  0  0  0  0  0  0  0  0  0  0  0
    1.9596   -0.7756    0.0469 C   0  0  0  0  0  0  0  0  0  0  0  0
    1.5375   -1.8839   -0.7043 C   0  0  0  0  0  0  0  0  0  0  0  0
    2.1911   -3.1129   -0.5881 C   0  0  0  0  0  0  0  0  0  0  0  0
    1.7340   -4.1929   -1.3432 O   0  0  0  0  0  0  0  0  0  0  0  0
    3.2919   -3.2451    0.2750 C   0  0  0  0  0  0  0  0  0  0  0  0
    3.9322   -4.4808    0.3835 O   0  0  0  0  0  0  0  0  0  0  0  0
    3.7423   -2.1370    1.0167 C   0  0  0  0  0  0  0  0  0  0  0  0
    4.8507   -2.2955    1.8643 O   0  0  0  0  0  0  0  0  0  0  0  0
    5.4093   -1.2609    2.6677 C   0  0  0  0  0  0  0  0  0  0  0  0
    3.0731   -0.9040    0.8901 C   0  0  0  0  0  0  0  0  0  0  0  0
   -2.8436   -1.9700    0.2756 C   0  0  2  0  0  0  0  0  0  0  0  0
   -1.8571   -2.9191   -0.0463 O   0  0  0  0  0  0  0  0  0  0  0  0
   -4.1594   -2.2784   -0.4873 C   0  0  2  0  0  0  0  0  0  0  0  0
   -3.8820   -2.8098   -1.7607 O   0  0  0  0  0  0  0  0  0  0  0  0
   -5.2666   -0.6207    0.3646 H   0  0  0  0  0  0  0  0  0  0  0  0
   -6.7667   -1.7480   -0.7946 H   0  0  0  0  0  0  0  0  0  0  0  0
   -4.4560    0.1895   -2.4133 H   0  0  0  0  0  0  0  0  0  0  0  0
   -4.3518    1.1001   -0.8840 H   0  0  0  0  0  0  0  0  0  0  0  0
   -2.7416    0.1592    0.7374 H   0  0  0  0  0  0  0  0  0  0  0  0
   -1.7565    2.0582   -0.2627 H   0  0  0  0  0  0  0  0  0  0  0  0
   -2.1336    5.5023   -0.6081 H   0  0  0  0  0  0  0  0  0  0  0  0
    0.1224    6.4508   -0.6288 H   0  0  0  0  0  0  0  0  0  0  0  0
    2.4419    7.2749   -0.6342 H   0  0  0  0  0  0  0  0  0  0  0  0
    3.4816    3.7947   -0.2926 H   0  0  0  0  0  0  0  0  0  0  0  0
    0.7127   -1.7943   -1.4001 H   0  0  0  0  0  0  0  0  0  0  0  0
    2.1707   -5.1057   -1.2987 H   0  0  0  0  0  0  0  0  0  0  0  0
    4.7297   -4.6267    0.9906 H   0  0  0  0  0  0  0  0  0  0  0  0
    4.6542   -0.8907    3.3930 H   0  0  0  0  0  0  0  0  0  0  0  0
    5.7644   -0.4278    2.0250 H   0  0  0  0  0  0  0  0  0  0  0  0
    6.2736   -1.6671    3.2318 H   0  0  0  0  0  0  0  0  0  0  0  0
    3.4040   -0.0428    1.4555 H   0  0  0  0  0  0  0  0  0  0  0  0
   -3.0478   -2.0167    1.3716 H   0  0  0  0  0  0  0  0  0  0  0  0
   -2.1087   -3.7611    0.4160 H   0  0  0  0  0  0  0  0  0  0  0  0
   -4.7587   -3.0089    0.1070 H   0  0  0  0  0  0  0  0  0  0  0  0
   -3.7710   -3.7901   -1.6494 H   0  0  0  0  0  0  0  0  0  0  0  0
  1  2  1  0
  1  3  1  0
  3  4  1  0
  4  5  1  0
  5  6  1  0
  6  7  1  0
  7  8  2  0
  8  9  1  0
  9 10  2  0
 10 11  1  0
 10 12  1  0
 12 13  2  0
 13 14  1  0
 13 15  1  0
 15 16  2  0
 16 17  1  0
 17 18  2  0
 18 19  1  0
 19 20  2  0
 20 21  1  0
 21 22  1  0
 21 23  2  0
 23 24  1  0
 23 25  1  0
 25 26  1  0
 26 27  1  0
 25 28  2  0
  5 29  1  0
 29 30  1  0
 29 31  1  0
 31 32  1  0
 31  1  1  0
 18  7  1  0
 28 19  1  0
 16  9  1  0
  1 33  1  1
  2 34  1  0
  3 35  1  0
  3 36  1  0
  5 37  1  1
  8 38  1  0
 11 39  1  0
 12 40  1  0
 14 41  1  0
 15 42  1  0
 20 43  1  0
 22 44  1  0
 24 45  1  0
 27 46  1  0
 27 47  1  0
 27 48  1  0
 28 49  1  0
 29 50  1  1
 30 51  1  0
 31 52  1  1
 32 53  1  0
M  CHG  1  17   1
M  END
>  <LIG_ID>  (29) 
28

>  <_smiles>  (29) 
[H][C@@]1(O)CO[C@]([H])(OC2=CC3=C(O)C=C(O)C=C3[O+]=C2C2=CC(O)=C(O)C(OC)=C2)[C@]([H])(O)[C@]1([H])O

>  <_name>  (29) 
Petunidin 3-O-arabinoside

>  <_molecular_weight>  (29) 
449.385

>  <_formula>  (29) 
C21H21O11

>  <_logP>  (29) 
1.0296999999999992

>  <_molecular_wt_calculated>  (29) 
449.38799999999986

>  <_havy_atom_count>  (29) 
32

>  <_hydrogen_acceptors>  (29) 
10

>  <_hydrogen_donors>  (29) 
7

>  <_rotatable_bonds>  (29) 
12

>  <_amide_bonds>  (29) 
0

>  <_ring_count>  (29) 
4

$$$$
Malvidin 3-O-glucoside
     RDKit          3D

 60 63  0  0  0  0  0  0  0  0999 V2000
    2.2230   -0.6237   -6.1481 C   0  0  0  0  0  0  0  0  0  0  0  0
    2.8842   -1.4399   -5.1866 O   0  0  0  0  0  0  0  0  0  0  0  0
    2.7213   -1.3237   -3.7969 C   0  0  0  0  0  0  0  0  0  0  0  0
    1.8663   -0.3658   -3.2218 C   0  0  0  0  0  0  0  0  0  0  0  0
    1.7171   -0.2852   -1.8307 C   0  0  0  0  0  0  0  0  0  0  0  0
    2.4614   -1.1460   -1.0085 C   0  0  0  0  0  0  0  0  0  0  0  0
    3.3159   -2.1132   -1.5682 C   0  0  0  0  0  0  0  0  0  0  0  0
    4.0551   -3.0001   -0.7684 O   0  0  0  0  0  0  0  0  0  0  0  0
    4.0064   -3.0380    0.6545 C   0  0  0  0  0  0  0  0  0  0  0  0
    3.4388   -2.1968   -2.9670 C   0  0  0  0  0  0  0  0  0  0  0  0
    4.2780   -3.1459   -3.5529 O   0  0  0  0  0  0  0  0  0  0  0  0
    0.8224    0.7425   -1.2507 C   0  0  0  0  0  0  0  0  0  0  0  0
    0.8470    1.9636   -1.7761 O   0  0  0  0  0  3  0  0  0  0  0  0
    0.1056    2.9675   -1.3237 C   0  0  0  0  0  0  0  0  0  0  0  0
    0.2040    4.2168   -1.9418 C   0  0  0  0  0  0  0  0  0  0  0  0
   -0.5572    5.2922   -1.4837 C   0  0  0  0  0  0  0  0  0  0  0  0
   -0.4452    6.5301   -2.1129 O   0  0  0  0  0  0  0  0  0  0  0  0
   -1.4238    5.1196   -0.3988 C   0  0  0  0  0  0  0  0  0  0  0  0
   -1.5411    3.8775    0.2372 C   0  0  0  0  0  0  0  0  0  0  0  0
   -2.4285    3.7895    1.3142 O   0  0  0  0  0  0  0  0  0  0  0  0
   -0.7693    2.7801   -0.2284 C   0  0  0  0  0  0  0  0  0  0  0  0
   -0.8312    1.4969    0.3386 C   0  0  0  0  0  0  0  0  0  0  0  0
   -0.0447    0.4533   -0.1788 C   0  0  0  0  0  0  0  0  0  0  0  0
   -0.1113   -0.8670    0.3098 O   0  0  0  0  0  0  0  0  0  0  0  0
   -0.8502   -1.3402    1.4398 C   0  0  2  0  0  0  0  0  0  0  0  0
   -2.2158   -0.9943    1.3103 O   0  0  0  0  0  0  0  0  0  0  0  0
   -3.0116   -1.7302    2.2299 C   0  0  2  0  0  0  0  0  0  0  0  0
   -4.4400   -1.1684    2.1895 C   0  0  0  0  0  0  0  0  0  0  0  0
   -4.9752   -1.2794    0.8977 O   0  0  0  0  0  0  0  0  0  0  0  0
   -2.4459   -1.6952    3.6904 C   0  0  1  0  0  0  0  0  0  0  0  0
   -1.8997   -2.9465    4.0232 O   0  0  0  0  0  0  0  0  0  0  0  0
   -1.3549   -0.6207    3.8375 C   0  0  2  0  0  0  0  0  0  0  0  0
   -1.9474    0.6486    3.7219 O   0  0  0  0  0  0  0  0  0  0  0  0
   -0.2533   -0.7958    2.7608 C   0  0  1  0  0  0  0  0  0  0  0  0
    0.7309   -1.6892    3.2171 O   0  0  0  0  0  0  0  0  0  0  0  0
    1.1228   -0.7493   -6.0637 H   0  0  0  0  0  0  0  0  0  0  0  0
    2.4996    0.4415   -5.9998 H   0  0  0  0  0  0  0  0  0  0  0  0
    2.5385   -0.9340   -7.1652 H   0  0  0  0  0  0  0  0  0  0  0  0
    1.3033    0.3116   -3.8504 H   0  0  0  0  0  0  0  0  0  0  0  0
    2.3890   -1.0449    0.0655 H   0  0  0  0  0  0  0  0  0  0  0  0
    4.3562   -2.0714    1.0747 H   0  0  0  0  0  0  0  0  0  0  0  0
    2.9713   -3.2518    0.9962 H   0  0  0  0  0  0  0  0  0  0  0  0
    4.6744   -3.8451    1.0185 H   0  0  0  0  0  0  0  0  0  0  0  0
    4.8207   -3.8017   -3.0040 H   0  0  0  0  0  0  0  0  0  0  0  0
    0.8758    4.3525   -2.7805 H   0  0  0  0  0  0  0  0  0  0  0  0
   -0.9835    7.3316   -1.8051 H   0  0  0  0  0  0  0  0  0  0  0  0
   -2.0125    5.9569   -0.0448 H   0  0  0  0  0  0  0  0  0  0  0  0
   -2.5935    2.9531    1.8548 H   0  0  0  0  0  0  0  0  0  0  0  0
   -1.4842    1.2990    1.1655 H   0  0  0  0  0  0  0  0  0  0  0  0
   -0.7474   -2.4513    1.4283 H   0  0  0  0  0  0  0  0  0  0  0  0
   -3.0765   -2.7870    1.8810 H   0  0  0  0  0  0  0  0  0  0  0  0
   -5.0858   -1.7501    2.8819 H   0  0  0  0  0  0  0  0  0  0  0  0
   -4.4481   -0.1059    2.5265 H   0  0  0  0  0  0  0  0  0  0  0  0
   -4.6406   -0.5007    0.3806 H   0  0  0  0  0  0  0  0  0  0  0  0
   -3.2504   -1.4551    4.4262 H   0  0  0  0  0  0  0  0  0  0  0  0
   -2.6647   -3.5579    4.1874 H   0  0  0  0  0  0  0  0  0  0  0  0
   -0.9064   -0.7160    4.8549 H   0  0  0  0  0  0  0  0  0  0  0  0
   -1.3028    1.3035    4.0983 H   0  0  0  0  0  0  0  0  0  0  0  0
    0.2233    0.1939    2.5730 H   0  0  0  0  0  0  0  0  0  0  0  0
    1.2902   -1.1943    3.8716 H   0  0  0  0  0  0  0  0  0  0  0  0
  1  2  1  0
  2  3  1  0
  3  4  2  0
  4  5  1  0
  5  6  2  0
  6  7  1  0
  7  8  1  0
  8  9  1  0
  7 10  2  0
 10 11  1  0
  5 12  1  0
 12 13  2  0
 13 14  1  0
 14 15  2  0
 15 16  1  0
 16 17  1  0
 16 18  2  0
 18 19  1  0
 19 20  1  0
 19 21  2  0
 21 22  1  0
 22 23  2  0
 23 24  1  0
 24 25  1  0
 25 26  1  0
 26 27  1  0
 27 28  1  0
 28 29  1  0
 27 30  1  0
 30 31  1  0
 30 32  1  0
 32 33  1  0
 32 34  1  0
 34 35  1  0
 10  3  1  0
 23 12  1  0
 34 25  1  0
 21 14  1  0
  1 36  1  0
  1 37  1  0
  1 38  1  0
  4 39  1  0
  6 40  1  0
  9 41  1  0
  9 42  1  0
  9 43  1  0
 11 44  1  0
 15 45  1  0
 17 46  1  0
 18 47  1  0
 20 48  1  0
 22 49  1  0
 25 50  1  1
 27 51  1  6
 28 52  1  0
 28 53  1  0
 29 54  1  0
 30 55  1  1
 31 56  1  0
 32 57  1  1
 33 58  1  0
 34 59  1  6
 35 60  1  0
M  CHG  1  13   1
M  END
>  <LIG_ID>  (30) 
29

>  <_smiles>  (30) 
COC1=CC(=CC(OC)=C1O)C1=[O+]C2=CC(O)=CC(O)=C2C=C1O[C@@H]1O[C@H](CO)[C@@H](O)[C@H](O)[C@H]1O

>  <_name>  (30) 
Malvidin 3-O-glucoside

>  <_molecular_weight>  (30) 
493.437

>  <_formula>  (30) 
C23H25O12

>  <_logP>  (30) 
0.6936000000000004

>  <_molecular_wt_calculated>  (30) 
493.44099999999986

>  <_havy_atom_count>  (30) 
35

>  <_hydrogen_acceptors>  (30) 
11

>  <_hydrogen_donors>  (30) 
7

>  <_rotatable_bonds>  (30) 
15

>  <_amide_bonds>  (30) 
0

>  <_ring_count>  (30) 
4

$$$$
Malvidin 3-O-arabinoside
     RDKit          3D

 56 59  0  0  0  0  0  0  0  0999 V2000
    5.5737   -0.2051   -2.9426 C   0  0  0  0  0  0  0  0  0  0  0  0
    5.3650   -1.0596   -1.8228 O   0  0  0  0  0  0  0  0  0  0  0  0
    4.2381   -1.0148   -0.9864 C   0  0  0  0  0  0  0  0  0  0  0  0
    3.1907   -0.0979   -1.1914 C   0  0  0  0  0  0  0  0  0  0  0  0
    2.0739   -0.0880   -0.3447 C   0  0  0  0  0  0  0  0  0  0  0  0
    2.0264   -0.9783    0.7395 C   0  0  0  0  0  0  0  0  0  0  0  0
    3.0615   -1.9063    0.9538 C   0  0  0  0  0  0  0  0  0  0  0  0
    3.0254   -2.8230    2.0171 O   0  0  0  0  0  0  0  0  0  0  0  0
    1.9563   -2.9352    2.9517 C   0  0  0  0  0  0  0  0  0  0  0  0
    4.1660   -1.9188    0.0830 C   0  0  0  0  0  0  0  0  0  0  0  0
    5.2096   -2.8270    0.2689 O   0  0  0  0  0  0  0  0  0  0  0  0
    0.9914    0.8962   -0.5759 C   0  0  0  0  0  0  0  0  0  0  0  0
    1.3337    2.1406   -0.8949 O   0  0  0  0  0  3  0  0  0  0  0  0
    0.4503    3.1084   -1.1085 C   0  0  0  0  0  0  0  0  0  0  0  0
    0.9096    4.3865   -1.4369 C   0  0  0  0  0  0  0  0  0  0  0  0
    0.0023    5.4250   -1.6649 C   0  0  0  0  0  0  0  0  0  0  0  0
    0.4529    6.7015   -1.9943 O   0  0  0  0  0  0  0  0  0  0  0  0
   -1.3692    5.1846   -1.5612 C   0  0  0  0  0  0  0  0  0  0  0  0
   -1.8547    3.9132   -1.2310 C   0  0  0  0  0  0  0  0  0  0  0  0
   -3.2413    3.7600   -1.1382 O   0  0  0  0  0  0  0  0  0  0  0  0
   -0.9372    2.8532   -1.0048 C   0  0  0  0  0  0  0  0  0  0  0  0
   -1.3333    1.5426   -0.6910 C   0  0  0  0  0  0  0  0  0  0  0  0
   -0.3689    0.5430   -0.4789 C   0  0  0  0  0  0  0  0  0  0  0  0
   -0.7148   -0.7943   -0.2091 O   0  0  0  0  0  0  0  0  0  0  0  0
   -2.0244   -1.2880    0.0821 C   0  0  1  0  0  0  0  0  0  0  0  0
   -1.9771   -2.7022    0.0625 O   0  0  0  0  0  0  0  0  0  0  0  0
   -3.2895   -3.2460    0.0300 C   0  0  0  0  0  0  0  0  0  0  0  0
   -4.2425   -2.6283    1.0864 C   0  0  2  0  0  0  0  0  0  0  0  0
   -5.1488   -1.7667    0.4425 O   0  0  0  0  0  0  0  0  0  0  0  0
   -3.4242   -1.8561    2.1401 C   0  0  2  0  0  0  0  0  0  0  0  0
   -4.2536   -1.2832    3.1213 O   0  0  0  0  0  0  0  0  0  0  0  0
   -2.5070   -0.7974    1.4752 C   0  0  1  0  0  0  0  0  0  0  0  0
   -1.4050   -0.5467    2.3104 O   0  0  0  0  0  0  0  0  0  0  0  0
    5.6073    0.8549   -2.6133 H   0  0  0  0  0  0  0  0  0  0  0  0
    4.7641   -0.3490   -3.6890 H   0  0  0  0  0  0  0  0  0  0  0  0
    6.5433   -0.4602   -3.4172 H   0  0  0  0  0  0  0  0  0  0  0  0
    3.2309    0.6019   -2.0158 H   0  0  0  0  0  0  0  0  0  0  0  0
    1.1939   -0.9307    1.4263 H   0  0  0  0  0  0  0  0  0  0  0  0
    1.8445   -1.9877    3.5200 H   0  0  0  0  0  0  0  0  0  0  0  0
    2.1839   -3.7524    3.6663 H   0  0  0  0  0  0  0  0  0  0  0  0
    1.0099   -3.1782    2.4231 H   0  0  0  0  0  0  0  0  0  0  0  0
    5.2120   -3.5021    1.0240 H   0  0  0  0  0  0  0  0  0  0  0  0
    1.9740    4.5714   -1.5150 H   0  0  0  0  0  0  0  0  0  0  0  0
    1.4412    6.9095   -2.0772 H   0  0  0  0  0  0  0  0  0  0  0  0
   -2.0664    5.9947   -1.7362 H   0  0  0  0  0  0  0  0  0  0  0  0
   -3.7069    2.9022   -0.8808 H   0  0  0  0  0  0  0  0  0  0  0  0
   -2.3741    1.2844   -0.6337 H   0  0  0  0  0  0  0  0  0  0  0  0
   -2.7176   -0.9309   -0.7157 H   0  0  0  0  0  0  0  0  0  0  0  0
   -3.7132   -3.1487   -0.9946 H   0  0  0  0  0  0  0  0  0  0  0  0
   -3.2035   -4.3357    0.2282 H   0  0  0  0  0  0  0  0  0  0  0  0
   -4.7957   -3.4565    1.5913 H   0  0  0  0  0  0  0  0  0  0  0  0
   -5.9900   -1.7795    0.9697 H   0  0  0  0  0  0  0  0  0  0  0  0
   -2.7753   -2.6008    2.6542 H   0  0  0  0  0  0  0  0  0  0  0  0
   -4.7873   -0.5655    2.6916 H   0  0  0  0  0  0  0  0  0  0  0  0
   -3.0760    0.1480    1.3197 H   0  0  0  0  0  0  0  0  0  0  0  0
   -1.7341    0.0189    3.0570 H   0  0  0  0  0  0  0  0  0  0  0  0
  1  2  1  0
  2  3  1  0
  3  4  2  0
  4  5  1  0
  5  6  2  0
  6  7  1  0
  7  8  1  0
  8  9  1  0
  7 10  2  0
 10 11  1  0
  5 12  1  0
 12 13  2  0
 13 14  1  0
 14 15  2  0
 15 16  1  0
 16 17  1  0
 16 18  2  0
 18 19  1  0
 19 20  1  0
 19 21  2  0
 21 22  1  0
 22 23  2  0
 23 24  1  0
 24 25  1  0
 25 26  1  0
 26 27  1  0
 27 28  1  0
 28 29  1  0
 28 30  1  0
 30 31  1  0
 30 32  1  0
 32 33  1  0
 10  3  1  0
 23 12  1  0
 32 25  1  0
 21 14  1  0
  1 34  1  0
  1 35  1  0
  1 36  1  0
  4 37  1  0
  6 38  1  0
  9 39  1  0
  9 40  1  0
  9 41  1  0
 11 42  1  0
 15 43  1  0
 17 44  1  0
 18 45  1  0
 20 46  1  0
 22 47  1  0
 25 48  1  6
 27 49  1  0
 27 50  1  0
 28 51  1  1
 29 52  1  0
 30 53  1  1
 31 54  1  0
 32 55  1  6
 33 56  1  0
M  CHG  1  13   1
M  END
>  <LIG_ID>  (31) 
30

>  <_smiles>  (31) 
COC1=CC(=CC(OC)=C1O)C1=[O+]C2=CC(O)=CC(O)=C2C=C1O[C@H]1OC[C@H](O)[C@H](O)[C@H]1O

>  <_name>  (31) 
Malvidin 3-O-arabinoside

>  <_molecular_weight>  (31) 
463.411

>  <_formula>  (31) 
C22H23O11

>  <_logP>  (31) 
1.3327000000000002

>  <_molecular_wt_calculated>  (31) 
463.41499999999985

>  <_havy_atom_count>  (31) 
33

>  <_hydrogen_acceptors>  (31) 
10

>  <_hydrogen_donors>  (31) 
6

>  <_rotatable_bonds>  (31) 
13

>  <_amide_bonds>  (31) 
0

>  <_ring_count>  (31) 
4

$$$$
Delphinidin 3-O-(6''-acetyl-glucoside)
     RDKit          3D

 59 62  0  0  0  0  0  0  0  0999 V2000
    3.1903   -0.1791   -0.4094 C   0  0  1  0  0  0  0  0  0  0  0  0
    4.1336   -1.3607   -0.6569 C   0  0  0  0  0  0  0  0  0  0  0  0
    5.4447   -0.8861   -0.9509 O   0  0  0  0  0  0  0  0  0  0  0  0
    6.5160   -1.7443   -1.2121 C   0  0  0  0  0  0  0  0  0  0  0  0
    7.8651   -1.1726   -1.4863 C   0  0  0  0  0  0  0  0  0  0  0  0
    6.3630   -2.9956   -1.1767 O   0  0  0  0  0  0  0  0  0  0  0  0
    1.8696   -0.6881   -0.2951 O   0  0  0  0  0  0  0  0  0  0  0  0
    0.9616    0.3500    0.0170 C   0  0  1  0  0  0  0  0  0  0  0  0
   -0.3609   -0.1576   -0.1728 O   0  0  0  0  0  0  0  0  0  0  0  0
   -1.5532    0.5891   -0.1680 C   0  0  0  0  0  0  0  0  0  0  0  0
   -2.7851   -0.0831   -0.0468 C   0  0  0  0  0  0  0  0  0  0  0  0
   -3.9240    0.6002   -0.1092 O   0  0  0  0  0  3  0  0  0  0  0  0
   -3.9769    1.9184   -0.2572 C   0  0  0  0  0  0  0  0  0  0  0  0
   -5.2240    2.5465   -0.3093 C   0  0  0  0  0  0  0  0  0  0  0  0
   -5.3109    3.9300   -0.4642 C   0  0  0  0  0  0  0  0  0  0  0  0
   -6.5634    4.5378   -0.5165 O   0  0  0  0  0  0  0  0  0  0  0  0
   -4.1429    4.6941   -0.5641 C   0  0  0  0  0  0  0  0  0  0  0  0
   -2.8812    4.0888   -0.5105 C   0  0  0  0  0  0  0  0  0  0  0  0
   -1.7640    4.9243   -0.6031 O   0  0  0  0  0  0  0  0  0  0  0  0
   -2.7894    2.6796   -0.3614 C   0  0  0  0  0  0  0  0  0  0  0  0
   -1.5692    1.9849   -0.3253 C   0  0  0  0  0  0  0  0  0  0  0  0
   -2.8616   -1.5502    0.1379 C   0  0  0  0  0  0  0  0  0  0  0  0
   -2.0196   -2.2171    1.0444 C   0  0  0  0  0  0  0  0  0  0  0  0
   -2.1180   -3.6039    1.2182 C   0  0  0  0  0  0  0  0  0  0  0  0
   -1.2738   -4.2626    2.1107 O   0  0  0  0  0  0  0  0  0  0  0  0
   -3.0706   -4.3352    0.4972 C   0  0  0  0  0  0  0  0  0  0  0  0
   -3.1514   -5.7159    0.6806 O   0  0  0  0  0  0  0  0  0  0  0  0
   -3.9321   -3.6734   -0.3941 C   0  0  0  0  0  0  0  0  0  0  0  0
   -4.8875   -4.3959   -1.1073 O   0  0  0  0  0  0  0  0  0  0  0  0
   -3.8288   -2.2857   -0.5638 C   0  0  0  0  0  0  0  0  0  0  0  0
    1.1570    0.7764    1.4971 C   0  0  2  0  0  0  0  0  0  0  0  0
    0.8057    2.1241    1.6903 O   0  0  0  0  0  0  0  0  0  0  0  0
    2.6026    0.5037    1.9931 C   0  0  1  0  0  0  0  0  0  0  0  0
    2.6876   -0.7967    2.5215 O   0  0  0  0  0  0  0  0  0  0  0  0
    3.6286    0.6382    0.8519 C   0  0  2  0  0  0  0  0  0  0  0  0
    3.7751    1.9946    0.5173 O   0  0  0  0  0  0  0  0  0  0  0  0
    3.2491    0.4649   -1.3181 H   0  0  0  0  0  0  0  0  0  0  0  0
    3.7587   -1.9547   -1.5193 H   0  0  0  0  0  0  0  0  0  0  0  0
    4.1605   -2.0169    0.2410 H   0  0  0  0  0  0  0  0  0  0  0  0
    8.3895   -1.7829   -2.2516 H   0  0  0  0  0  0  0  0  0  0  0  0
    7.7670   -0.1328   -1.8627 H   0  0  0  0  0  0  0  0  0  0  0  0
    8.4611   -1.1662   -0.5502 H   0  0  0  0  0  0  0  0  0  0  0  0
    1.1230    1.2044   -0.6797 H   0  0  0  0  0  0  0  0  0  0  0  0
   -6.1290    1.9568   -0.2302 H   0  0  0  0  0  0  0  0  0  0  0  0
   -6.6618    5.5402   -0.6279 H   0  0  0  0  0  0  0  0  0  0  0  0
   -4.2138    5.7685   -0.6803 H   0  0  0  0  0  0  0  0  0  0  0  0
   -0.8069    4.6099   -0.5376 H   0  0  0  0  0  0  0  0  0  0  0  0
   -0.6399    2.5072   -0.4512 H   0  0  0  0  0  0  0  0  0  0  0  0
   -1.3021   -1.6621    1.6350 H   0  0  0  0  0  0  0  0  0  0  0  0
   -0.5738   -3.7625    2.6463 H   0  0  0  0  0  0  0  0  0  0  0  0
   -3.8240   -6.2871    0.1832 H   0  0  0  0  0  0  0  0  0  0  0  0
   -5.5208   -3.9431   -1.7559 H   0  0  0  0  0  0  0  0  0  0  0  0
   -4.4956   -1.7829   -1.2543 H   0  0  0  0  0  0  0  0  0  0  0  0
    0.4658    0.1740    2.1270 H   0  0  0  0  0  0  0  0  0  0  0  0
    1.4118    2.6796    1.1357 H   0  0  0  0  0  0  0  0  0  0  0  0
    2.8689    1.2363    2.7922 H   0  0  0  0  0  0  0  0  0  0  0  0
    2.2813   -0.7681    3.4271 H   0  0  0  0  0  0  0  0  0  0  0  0
    4.6055    0.2699    1.2475 H   0  0  0  0  0  0  0  0  0  0  0  0
    4.6134    2.0706   -0.0096 H   0  0  0  0  0  0  0  0  0  0  0  0
  1  2  1  0
  2  3  1  0
  3  4  1  0
  4  5  1  0
  4  6  2  0
  1  7  1  0
  7  8  1  0
  8  9  1  0
  9 10  1  0
 10 11  1  0
 11 12  2  0
 12 13  1  0
 13 14  2  0
 14 15  1  0
 15 16  1  0
 15 17  2  0
 17 18  1  0
 18 19  1  0
 18 20  2  0
 20 21  1  0
 11 22  1  0
 22 23  2  0
 23 24  1  0
 24 25  1  0
 24 26  2  0
 26 27  1  0
 26 28  1  0
 28 29  1  0
 28 30  2  0
  8 31  1  0
 31 32  1  0
 31 33  1  0
 33 34  1  0
 33 35  1  0
 35 36  1  0
 35  1  1  0
 21 10  2  0
 30 22  1  0
 20 13  1  0
  1 37  1  6
  2 38  1  0
  2 39  1  0
  5 40  1  0
  5 41  1  0
  5 42  1  0
  8 43  1  6
 14 44  1  0
 16 45  1  0
 17 46  1  0
 19 47  1  0
 21 48  1  0
 23 49  1  0
 25 50  1  0
 27 51  1  0
 29 52  1  0
 30 53  1  0
 31 54  1  1
 32 55  1  0
 33 56  1  1
 34 57  1  0
 35 58  1  1
 36 59  1  0
M  CHG  1  12   1
M  END
>  <LIG_ID>  (32) 
31

>  <_smiles>  (32) 
[H][C@]1(COC(C)=O)O[C@@]([H])(OC2=C([O+]=C3C=C(O)C=C(O)C3=C2)C2=CC(O)=C(O)C(O)=C2)[C@]([H])(O)[C@@]([H])(O)[C@]1([H])O

>  <_name>  (32) 
Delphinidin 3-O-(6''-acetyl-glucoside)

>  <_molecular_weight>  (32) 
507.421

>  <_formula>  (32) 
C23H23O13

>  <_logP>  (32) 
0.6583999999999994

>  <_molecular_wt_calculated>  (32) 
507.4239999999999

>  <_havy_atom_count>  (32) 
36

>  <_hydrogen_acceptors>  (32) 
12

>  <_hydrogen_donors>  (32) 
8

>  <_rotatable_bonds>  (32) 
14

>  <_amide_bonds>  (32) 
0

>  <_ring_count>  (32) 
4

$$$$
Petunidin 3-O-(6''-acetyl-galactoside)
     RDKit          3D

 62 65  0  0  0  0  0  0  0  0999 V2000
    2.9078    0.4316   -2.1796 C   0  0  1  0  0  0  0  0  0  0  0  0
    3.9397   -0.2668   -1.2790 C   0  0  0  0  0  0  0  0  0  0  0  0
    3.7421    0.0811    0.0873 O   0  0  0  0  0  0  0  0  0  0  0  0
    4.5218   -0.4404    1.1218 C   0  0  0  0  0  0  0  0  0  0  0  0
    4.2192   -0.0567    2.5299 C   0  0  0  0  0  0  0  0  0  0  0  0
    5.4965   -1.2013    0.8746 O   0  0  0  0  0  0  0  0  0  0  0  0
    1.5792    0.0225   -1.8521 O   0  0  0  0  0  0  0  0  0  0  0  0
    0.8908    0.9708   -1.0555 C   0  0  0  0  0  0  0  0  0  0  0  0
   -0.3685    0.4318   -0.6534 O   0  0  0  0  0  0  0  0  0  0  0  0
   -0.5625   -0.6433    0.2296 C   0  0  0  0  0  0  0  0  0  0  0  0
   -1.8740   -1.0060    0.6030 C   0  0  0  0  0  0  0  0  0  0  0  0
   -2.0737   -2.0578    1.3949 O   0  0  0  0  0  3  0  0  0  0  0  0
   -1.0850   -2.7954    1.8875 C   0  0  0  0  0  0  0  0  0  0  0  0
   -1.3794   -3.8817    2.7172 C   0  0  0  0  0  0  0  0  0  0  0  0
   -0.3456   -4.6662    3.2446 C   0  0  0  0  0  0  0  0  0  0  0  0
   -0.6298   -5.7495    4.0732 O   0  0  0  0  0  0  0  0  0  0  0  0
    0.9852   -4.3631    2.9388 C   0  0  0  0  0  0  0  0  0  0  0  0
    1.2952   -3.2780    2.1060 C   0  0  0  0  0  0  0  0  0  0  0  0
    2.6265   -2.9911    1.8038 O   0  0  0  0  0  0  0  0  0  0  0  0
    0.2562   -2.4870    1.5788 C   0  0  0  0  0  0  0  0  0  0  0  0
    0.5067   -1.3952    0.7403 C   0  0  0  0  0  0  0  0  0  0  0  0
   -3.0588   -0.2561    0.1243 C   0  0  0  0  0  0  0  0  0  0  0  0
   -4.2076   -0.9584   -0.2662 C   0  0  0  0  0  0  0  0  0  0  0  0
   -5.3422   -0.2735   -0.7194 C   0  0  0  0  0  0  0  0  0  0  0  0
   -6.4744   -0.9834   -1.1165 O   0  0  0  0  0  0  0  0  0  0  0  0
   -5.3372    1.1303   -0.7751 C   0  0  0  0  0  0  0  0  0  0  0  0
   -6.4550    1.8303   -1.2310 O   0  0  0  0  0  0  0  0  0  0  0  0
   -4.2031    1.8471   -0.3680 C   0  0  0  0  0  0  0  0  0  0  0  0
   -4.2382    3.2491   -0.4360 O   0  0  0  0  0  0  0  0  0  0  0  0
   -3.1511    4.1011   -0.0886 C   0  0  0  0  0  0  0  0  0  0  0  0
   -3.0716    1.1491    0.0944 C   0  0  0  0  0  0  0  0  0  0  0  0
    0.6466    2.2833   -1.8469 C   0  0  2  0  0  0  0  0  0  0  0  0
   -0.5626    2.2356   -2.5650 O   0  0  0  0  0  0  0  0  0  0  0  0
    1.8207    2.6120   -2.8027 C   0  0  1  0  0  0  0  0  0  0  0  0
    1.9860    4.0015   -2.9199 O   0  0  0  0  0  0  0  0  0  0  0  0
    3.1206    1.9723   -2.2979 C   0  0  1  0  0  0  0  0  0  0  0  0
    3.4872    2.5308   -1.0593 O   0  0  0  0  0  0  0  0  0  0  0  0
    3.0943    0.0316   -3.2010 H   0  0  0  0  0  0  0  0  0  0  0  0
    4.9662    0.0226   -1.5941 H   0  0  0  0  0  0  0  0  0  0  0  0
    3.8334   -1.3678   -1.3950 H   0  0  0  0  0  0  0  0  0  0  0  0
    4.8043    0.8462    2.8012 H   0  0  0  0  0  0  0  0  0  0  0  0
    4.4827   -0.8871    3.2185 H   0  0  0  0  0  0  0  0  0  0  0  0
    3.1360    0.1639    2.6348 H   0  0  0  0  0  0  0  0  0  0  0  0
    1.4708    1.2062   -0.1350 H   0  0  0  0  0  0  0  0  0  0  0  0
   -2.4105   -4.1149    2.9521 H   0  0  0  0  0  0  0  0  0  0  0  0
   -1.5826   -5.9963    4.3142 H   0  0  0  0  0  0  0  0  0  0  0  0
    1.7795   -4.9745    3.3485 H   0  0  0  0  0  0  0  0  0  0  0  0
    3.3882   -3.5462    2.1756 H   0  0  0  0  0  0  0  0  0  0  0  0
    1.5219   -1.1462    0.4766 H   0  0  0  0  0  0  0  0  0  0  0  0
   -4.2179   -2.0414   -0.2331 H   0  0  0  0  0  0  0  0  0  0  0  0
   -6.5043   -1.9959   -1.0868 H   0  0  0  0  0  0  0  0  0  0  0  0
   -7.2988    1.3601   -1.5359 H   0  0  0  0  0  0  0  0  0  0  0  0
   -2.2690    3.8740   -0.7241 H   0  0  0  0  0  0  0  0  0  0  0  0
   -2.8932    3.9733    0.9839 H   0  0  0  0  0  0  0  0  0  0  0  0
   -3.4489    5.1560   -0.2583 H   0  0  0  0  0  0  0  0  0  0  0  0
   -2.2098    1.6955    0.4508 H   0  0  0  0  0  0  0  0  0  0  0  0
    0.5555    3.1014   -1.0983 H   0  0  0  0  0  0  0  0  0  0  0  0
   -0.5218    1.4467   -3.1671 H   0  0  0  0  0  0  0  0  0  0  0  0
    1.6162    2.1838   -3.8130 H   0  0  0  0  0  0  0  0  0  0  0  0
    1.2209    4.3345   -3.4581 H   0  0  0  0  0  0  0  0  0  0  0  0
    3.9317    2.1562   -3.0428 H   0  0  0  0  0  0  0  0  0  0  0  0
    3.9474    3.3890   -1.2516 H   0  0  0  0  0  0  0  0  0  0  0  0
  1  2  1  0
  2  3  1  0
  3  4  1  0
  4  5  1  0
  4  6  2  0
  1  7  1  0
  7  8  1  0
  8  9  1  0
  9 10  1  0
 10 11  1  0
 11 12  2  0
 12 13  1  0
 13 14  2  0
 14 15  1  0
 15 16  1  0
 15 17  2  0
 17 18  1  0
 18 19  1  0
 18 20  2  0
 20 21  1  0
 11 22  1  0
 22 23  2  0
 23 24  1  0
 24 25  1  0
 24 26  2  0
 26 27  1  0
 26 28  1  0
 28 29  1  0
 29 30  1  0
 28 31  2  0
  8 32  1  0
 32 33  1  0
 32 34  1  0
 34 35  1  0
 34 36  1  0
 36 37  1  0
 36  1  1  0
 21 10  2  0
 31 22  1  0
 20 13  1  0
  1 38  1  6
  2 39  1  0
  2 40  1  0
  5 41  1  0
  5 42  1  0
  5 43  1  0
  8 44  1  0
 14 45  1  0
 16 46  1  0
 17 47  1  0
 19 48  1  0
 21 49  1  0
 23 50  1  0
 25 51  1  0
 27 52  1  0
 30 53  1  0
 30 54  1  0
 30 55  1  0
 31 56  1  0
 32 57  1  1
 33 58  1  0
 34 59  1  6
 35 60  1  0
 36 61  1  6
 37 62  1  0
M  CHG  1  12   1
M  END
>  <LIG_ID>  (33) 
32

>  <_smiles>  (33) 
[H][C@]1(COC(C)=O)OC(OC2=C([O+]=C3C=C(O)C=C(O)C3=C2)C2=CC(O)=C(O)C(OC)=C2)[C@]([H])(O)[C@@]([H])(O)[C@@]1([H])O

>  <_name>  (33) 
Petunidin 3-O-(6''-acetyl-galactoside)

>  <_molecular_weight>  (33) 
521.448

>  <_formula>  (33) 
C24H25O13

>  <_logP>  (33) 
0.9613999999999989

>  <_molecular_wt_calculated>  (33) 
521.4510000000005

>  <_havy_atom_count>  (33) 
37

>  <_hydrogen_acceptors>  (33) 
12

>  <_hydrogen_donors>  (33) 
7

>  <_rotatable_bonds>  (33) 
15

>  <_amide_bonds>  (33) 
0

>  <_ring_count>  (33) 
4

$$$$
Peonidin 3-O-(6''-acetyl-galactoside)
     RDKit          3D

 61 64  0  0  0  0  0  0  0  0999 V2000
    2.7946   -1.3402   -0.2228 C   0  0  1  0  0  0  0  0  0  0  0  0
    4.2733   -1.1126   -0.5755 C   0  0  0  0  0  0  0  0  0  0  0  0
    5.0951   -1.6299    0.4671 O   0  0  0  0  0  0  0  0  0  0  0  0
    6.4906   -1.5630    0.4310 C   0  0  0  0  0  0  0  0  0  0  0  0
    7.2820   -2.1062    1.5716 C   0  0  0  0  0  0  0  0  0  0  0  0
    7.0847   -1.0113   -0.5349 O   0  0  0  0  0  0  0  0  0  0  0  0
    2.5161   -0.7157    1.0335 O   0  0  0  0  0  0  0  0  0  0  0  0
    1.5939    0.3640    0.9952 C   0  0  0  0  0  0  0  0  0  0  0  0
    0.2629   -0.1639    0.9809 O   0  0  0  0  0  0  0  0  0  0  0  0
   -0.9235    0.5540    1.2064 C   0  0  0  0  0  0  0  0  0  0  0  0
   -2.1200    0.1006    0.6223 C   0  0  0  0  0  0  0  0  0  0  0  0
   -3.2418    0.7965    0.7777 O   0  0  0  0  0  3  0  0  0  0  0  0
   -3.3123    1.9133    1.4927 C   0  0  0  0  0  0  0  0  0  0  0  0
   -4.5386    2.5741    1.6010 C   0  0  0  0  0  0  0  0  0  0  0  0
   -4.6446    3.7461    2.3499 C   0  0  0  0  0  0  0  0  0  0  0  0
   -5.8763    4.3898    2.4471 O   0  0  0  0  0  0  0  0  0  0  0  0
   -3.5164    4.2643    2.9954 C   0  0  0  0  0  0  0  0  0  0  0  0
   -2.2753    3.6227    2.9001 C   0  0  0  0  0  0  0  0  0  0  0  0
   -1.1967    4.2087    3.5694 O   0  0  0  0  0  0  0  0  0  0  0  0
   -2.1641    2.4285    2.1402 C   0  0  0  0  0  0  0  0  0  0  0  0
   -0.9610    1.7192    1.9879 C   0  0  0  0  0  0  0  0  0  0  0  0
   -2.1615   -1.1244   -0.2051 C   0  0  0  0  0  0  0  0  0  0  0  0
   -2.8327   -1.1051   -1.4372 C   0  0  0  0  0  0  0  0  0  0  0  0
   -2.8748   -2.2553   -2.2508 C   0  0  0  0  0  0  0  0  0  0  0  0
   -3.5237   -2.2611   -3.4960 O   0  0  0  0  0  0  0  0  0  0  0  0
   -4.1894   -1.1386   -4.0654 C   0  0  0  0  0  0  0  0  0  0  0  0
   -2.2483   -3.4340   -1.8064 C   0  0  0  0  0  0  0  0  0  0  0  0
   -2.2628   -4.5939   -2.5809 O   0  0  0  0  0  0  0  0  0  0  0  0
   -1.5994   -3.4580   -0.5685 C   0  0  0  0  0  0  0  0  0  0  0  0
   -1.5603   -2.3154    0.2314 C   0  0  0  0  0  0  0  0  0  0  0  0
    1.8532    1.2963   -0.2108 C   0  0  2  0  0  0  0  0  0  0  0  0
    1.0441    2.4420   -0.1480 O   0  0  0  0  0  0  0  0  0  0  0  0
    1.5815    0.5456   -1.5289 C   0  0  1  0  0  0  0  0  0  0  0  0
    2.3203    1.1090   -2.5857 O   0  0  0  0  0  0  0  0  0  0  0  0
    1.8221   -0.9817   -1.3879 C   0  0  1  0  0  0  0  0  0  0  0  0
    2.2653   -1.5449   -2.5972 O   0  0  0  0  0  0  0  0  0  0  0  0
    2.6840   -2.4357   -0.0635 H   0  0  0  0  0  0  0  0  0  0  0  0
    4.5284   -1.6329   -1.5238 H   0  0  0  0  0  0  0  0  0  0  0  0
    4.4820   -0.0304   -0.6937 H   0  0  0  0  0  0  0  0  0  0  0  0
    7.5346   -1.2829    2.2716 H   0  0  0  0  0  0  0  0  0  0  0  0
    6.6904   -2.8749    2.1116 H   0  0  0  0  0  0  0  0  0  0  0  0
    8.2187   -2.5715    1.1985 H   0  0  0  0  0  0  0  0  0  0  0  0
    1.7562    0.9399    1.9285 H   0  0  0  0  0  0  0  0  0  0  0  0
   -5.4131    2.1740    1.1025 H   0  0  0  0  0  0  0  0  0  0  0  0
   -5.9877    5.2427    2.9828 H   0  0  0  0  0  0  0  0  0  0  0  0
   -3.6020    5.1751    3.5752 H   0  0  0  0  0  0  0  0  0  0  0  0
   -0.2549    3.8455    3.5658 H   0  0  0  0  0  0  0  0  0  0  0  0
   -0.0589    2.0526    2.4667 H   0  0  0  0  0  0  0  0  0  0  0  0
   -3.3027   -0.1866   -1.7633 H   0  0  0  0  0  0  0  0  0  0  0  0
   -5.0223   -0.8138   -3.4065 H   0  0  0  0  0  0  0  0  0  0  0  0
   -3.4716   -0.3046   -4.2153 H   0  0  0  0  0  0  0  0  0  0  0  0
   -4.6085   -1.4275   -5.0508 H   0  0  0  0  0  0  0  0  0  0  0  0
   -2.7177   -4.6339   -3.4850 H   0  0  0  0  0  0  0  0  0  0  0  0
   -1.1256   -4.3684   -0.2240 H   0  0  0  0  0  0  0  0  0  0  0  0
   -1.0683   -2.3654    1.1946 H   0  0  0  0  0  0  0  0  0  0  0  0
    2.9225    1.6084   -0.1777 H   0  0  0  0  0  0  0  0  0  0  0  0
    1.4309    3.0297    0.5527 H   0  0  0  0  0  0  0  0  0  0  0  0
    0.5054    0.6756   -1.7843 H   0  0  0  0  0  0  0  0  0  0  0  0
    3.2811    0.9390   -2.4109 H   0  0  0  0  0  0  0  0  0  0  0  0
    0.8468   -1.4562   -1.1293 H   0  0  0  0  0  0  0  0  0  0  0  0
    1.4962   -1.5178   -3.2251 H   0  0  0  0  0  0  0  0  0  0  0  0
  1  2  1  0
  2  3  1  0
  3  4  1  0
  4  5  1  0
  4  6  2  0
  1  7  1  0
  7  8  1  0
  8  9  1  0
  9 10  1  0
 10 11  1  0
 11 12  2  0
 12 13  1  0
 13 14  2  0
 14 15  1  0
 15 16  1  0
 15 17  2  0
 17 18  1  0
 18 19  1  0
 18 20  2  0
 20 21  1  0
 11 22  1  0
 22 23  2  0
 23 24  1  0
 24 25  1  0
 25 26  1  0
 24 27  2  0
 27 28  1  0
 27 29  1  0
 29 30  2  0
  8 31  1  0
 31 32  1  0
 31 33  1  0
 33 34  1  0
 33 35  1  0
 35 36  1  0
 35  1  1  0
 21 10  2  0
 30 22  1  0
 20 13  1  0
  1 37  1  1
  2 38  1  0
  2 39  1  0
  5 40  1  0
  5 41  1  0
  5 42  1  0
  8 43  1  0
 14 44  1  0
 16 45  1  0
 17 46  1  0
 19 47  1  0
 21 48  1  0
 23 49  1  0
 26 50  1  0
 26 51  1  0
 26 52  1  0
 28 53  1  0
 29 54  1  0
 30 55  1  0
 31 56  1  6
 32 57  1  0
 33 58  1  6
 34 59  1  0
 35 60  1  1
 36 61  1  0
M  CHG  1  12   1
M  END
>  <LIG_ID>  (34) 
33

>  <_smiles>  (34) 
[H][C@]1(COC(C)=O)OC(OC2=C([O+]=C3C=C(O)C=C(O)C3=C2)C2=CC(OC)=C(O)C=C2)[C@]([H])(O)[C@@]([H])(O)[C@@]1([H])O

>  <_name>  (34) 
Peonidin 3-O-(6''-acetyl-galactoside)

>  <_molecular_weight>  (34) 
505.448

>  <_formula>  (34) 
C24H25O12

>  <_logP>  (34) 
1.2557999999999987

>  <_molecular_wt_calculated>  (34) 
505.4519999999999

>  <_havy_atom_count>  (34) 
36

>  <_hydrogen_acceptors>  (34) 
11

>  <_hydrogen_donors>  (34) 
6

>  <_rotatable_bonds>  (34) 
14

>  <_amide_bonds>  (34) 
0

>  <_ring_count>  (34) 
4

$$$$
Cyanidin 3-O-(6''-acetyl-glucoside)
     RDKit          3D

 58 61  0  0  0  0  0  0  0  0999 V2000
   -3.1788   -0.1757   -0.9158 C   0  0  1  0  0  0  0  0  0  0  0  0
   -4.1180    0.2993   -2.0346 C   0  0  0  0  0  0  0  0  0  0  0  0
   -5.4698   -0.0737   -1.7684 O   0  0  0  0  0  0  0  0  0  0  0  0
   -5.9551   -1.3769   -1.9230 C   0  0  0  0  0  0  0  0  0  0  0  0
   -7.3561   -1.6894   -1.5214 C   0  0  0  0  0  0  0  0  0  0  0  0
   -5.2119   -2.2965   -2.3615 O   0  0  0  0  0  0  0  0  0  0  0  0
   -1.8619    0.2393   -1.2243 O   0  0  0  0  0  0  0  0  0  0  0  0
   -0.9101   -0.4509   -0.4257 C   0  0  1  0  0  0  0  0  0  0  0  0
    0.3450    0.2116   -0.5940 O   0  0  0  0  0  0  0  0  0  0  0  0
    1.6080   -0.2876   -0.2266 C   0  0  0  0  0  0  0  0  0  0  0  0
    1.7991   -1.6132    0.1966 C   0  0  0  0  0  0  0  0  0  0  0  0
    3.0864   -2.0719    0.4987 C   0  0  0  0  0  0  0  0  0  0  0  0
    3.3283   -3.3933    0.9220 C   0  0  0  0  0  0  0  0  0  0  0  0
    2.2734   -4.2955    1.0643 O   0  0  0  0  0  0  0  0  0  0  0  0
    4.6408   -3.8015    1.2018 C   0  0  0  0  0  0  0  0  0  0  0  0
    5.7088   -2.9048    1.0616 C   0  0  0  0  0  0  0  0  0  0  0  0
    7.0136   -3.3071    1.3379 O   0  0  0  0  0  0  0  0  0  0  0  0
    5.4670   -1.5937    0.6413 C   0  0  0  0  0  0  0  0  0  0  0  0
    4.1637   -1.1724    0.3604 C   0  0  0  0  0  0  0  0  0  0  0  0
    3.9479    0.0772   -0.0339 O   0  0  0  0  0  3  0  0  0  0  0  0
    2.7368    0.5541   -0.3145 C   0  0  0  0  0  0  0  0  0  0  0  0
    2.6234    1.9714   -0.7254 C   0  0  0  0  0  0  0  0  0  0  0  0
    3.5683    2.5138   -1.6097 C   0  0  0  0  0  0  0  0  0  0  0  0
    3.4868    3.8539   -1.9968 C   0  0  0  0  0  0  0  0  0  0  0  0
    2.4687    4.6747   -1.4934 C   0  0  0  0  0  0  0  0  0  0  0  0
    2.3877    6.0104   -1.8840 O   0  0  0  0  0  0  0  0  0  0  0  0
    1.5322    4.1465   -0.5890 C   0  0  0  0  0  0  0  0  0  0  0  0
    0.5151    4.9398   -0.0590 O   0  0  0  0  0  0  0  0  0  0  0  0
    1.6168    2.8038   -0.2042 C   0  0  0  0  0  0  0  0  0  0  0  0
   -1.2963   -0.4681    1.0887 C   0  0  2  0  0  0  0  0  0  0  0  0
   -1.7929   -1.7337    1.4461 O   0  0  0  0  0  0  0  0  0  0  0  0
   -2.3749    0.5904    1.3861 C   0  0  1  0  0  0  0  0  0  0  0  0
   -1.8449    1.8774    1.1866 O   0  0  0  0  0  0  0  0  0  0  0  0
   -3.6033    0.3967    0.4630 C   0  0  2  0  0  0  0  0  0  0  0  0
   -4.5209   -0.4846    1.0604 O   0  0  0  0  0  0  0  0  0  0  0  0
   -3.2302   -1.2905   -0.8940 H   0  0  0  0  0  0  0  0  0  0  0  0
   -3.7927   -0.1219   -3.0111 H   0  0  0  0  0  0  0  0  0  0  0  0
   -4.0652    1.4062   -2.1156 H   0  0  0  0  0  0  0  0  0  0  0  0
   -7.3632   -2.0822   -0.4835 H   0  0  0  0  0  0  0  0  0  0  0  0
   -7.9773   -0.7705   -1.5674 H   0  0  0  0  0  0  0  0  0  0  0  0
   -7.7891   -2.4497   -2.2052 H   0  0  0  0  0  0  0  0  0  0  0  0
   -0.8213   -1.4869   -0.8222 H   0  0  0  0  0  0  0  0  0  0  0  0
    0.9627   -2.2905    0.2738 H   0  0  0  0  0  0  0  0  0  0  0  0
    2.4277   -5.2499    1.3679 H   0  0  0  0  0  0  0  0  0  0  0  0
    4.8310   -4.8165    1.5277 H   0  0  0  0  0  0  0  0  0  0  0  0
    7.2236   -4.2499    1.6445 H   0  0  0  0  0  0  0  0  0  0  0  0
    6.2932   -0.9015    0.5343 H   0  0  0  0  0  0  0  0  0  0  0  0
    4.3621    1.8956   -2.0113 H   0  0  0  0  0  0  0  0  0  0  0  0
    4.2168    4.2541   -2.6889 H   0  0  0  0  0  0  0  0  0  0  0  0
    3.0521    6.4145   -2.5337 H   0  0  0  0  0  0  0  0  0  0  0  0
    0.4116    5.9170   -0.3044 H   0  0  0  0  0  0  0  0  0  0  0  0
    0.9091    2.4211    0.5197 H   0  0  0  0  0  0  0  0  0  0  0  0
   -0.4057   -0.2357    1.7194 H   0  0  0  0  0  0  0  0  0  0  0  0
   -1.0086   -2.3226    1.5959 H   0  0  0  0  0  0  0  0  0  0  0  0
   -2.6991    0.4940    2.4496 H   0  0  0  0  0  0  0  0  0  0  0  0
   -1.2618    2.0738    1.9659 H   0  0  0  0  0  0  0  0  0  0  0  0
   -4.0908    1.3912    0.3194 H   0  0  0  0  0  0  0  0  0  0  0  0
   -5.0075    0.0315    1.7552 H   0  0  0  0  0  0  0  0  0  0  0  0
  1  2  1  0
  2  3  1  0
  3  4  1  0
  4  5  1  0
  4  6  2  0
  1  7  1  0
  7  8  1  0
  8  9  1  0
  9 10  1  0
 10 11  2  0
 11 12  1  0
 12 13  2  0
 13 14  1  0
 13 15  1  0
 15 16  2  0
 16 17  1  0
 16 18  1  0
 18 19  2  0
 19 20  1  0
 20 21  2  0
 21 22  1  0
 22 23  2  0
 23 24  1  0
 24 25  2  0
 25 26  1  0
 25 27  1  0
 27 28  1  0
 27 29  2  0
  8 30  1  0
 30 31  1  0
 30 32  1  0
 32 33  1  0
 32 34  1  0
 34 35  1  0
 34  1  1  0
 21 10  1  0
 29 22  1  0
 19 12  1  0
  1 36  1  1
  2 37  1  0
  2 38  1  0
  5 39  1  0
  5 40  1  0
  5 41  1  0
  8 42  1  6
 11 43  1  0
 14 44  1  0
 15 45  1  0
 17 46  1  0
 18 47  1  0
 23 48  1  0
 24 49  1  0
 26 50  1  0
 28 51  1  0
 29 52  1  0
 30 53  1  1
 31 54  1  0
 32 55  1  1
 33 56  1  0
 34 57  1  6
 35 58  1  0
M  CHG  1  20   1
M  END
>  <LIG_ID>  (35) 
34

>  <_smiles>  (35) 
[H][C@]1(COC(C)=O)O[C@@]([H])(OC2=CC3=C(O)C=C(O)C=C3[O+]=C2C2=CC=C(O)C(O)=C2)[C@]([H])(O)[C@@]([H])(O)[C@]1([H])O

>  <_name>  (35) 
Cyanidin 3-O-(6''-acetyl-glucoside)

>  <_molecular_weight>  (35) 
491.422

>  <_formula>  (35) 
C23H23O12

>  <_logP>  (35) 
0.9527999999999994

>  <_molecular_wt_calculated>  (35) 
491.4249999999999

>  <_havy_atom_count>  (35) 
35

>  <_hydrogen_acceptors>  (35) 
11

>  <_hydrogen_donors>  (35) 
7

>  <_rotatable_bonds>  (35) 
13

>  <_amide_bonds>  (35) 
0

>  <_ring_count>  (35) 
4

$$$$
Malvidin 3-O-(6''-acetyl-galactoside)
     RDKit          3D

 65 68  0  0  0  0  0  0  0  0999 V2000
    3.3913   -1.6272    1.2913 C   0  0  1  0  0  0  0  0  0  0  0  0
    4.0091   -0.4441    2.0663 C   0  0  0  0  0  0  0  0  0  0  0  0
    3.1750   -0.1085    3.1712 O   0  0  0  0  0  0  0  0  0  0  0  0
    3.4714    0.9365    4.0503 C   0  0  0  0  0  0  0  0  0  0  0  0
    2.5517    1.2219    5.1883 C   0  0  0  0  0  0  0  0  0  0  0  0
    4.5269    1.6132    3.9150 O   0  0  0  0  0  0  0  0  0  0  0  0
    1.9961   -1.4647    1.0670 O   0  0  0  0  0  0  0  0  0  0  0  0
    1.7094   -0.4662    0.1015 C   0  0  0  0  0  0  0  0  0  0  0  0
    0.2889   -0.3457    0.0083 O   0  0  0  0  0  0  0  0  0  0  0  0
   -0.4201    0.6845   -0.6366 C   0  0  0  0  0  0  0  0  0  0  0  0
   -1.8174    0.5670   -0.7975 C   0  0  0  0  0  0  0  0  0  0  0  0
   -2.5104    1.5610   -1.3495 O   0  0  0  0  0  3  0  0  0  0  0  0
   -1.9505    2.6809   -1.7915 C   0  0  0  0  0  0  0  0  0  0  0  0
   -2.7505    3.6747   -2.3639 C   0  0  0  0  0  0  0  0  0  0  0  0
   -2.1749    4.8577   -2.8362 C   0  0  0  0  0  0  0  0  0  0  0  0
   -2.9870    5.8369   -3.4040 O   0  0  0  0  0  0  0  0  0  0  0  0
   -0.7901    5.0494   -2.7355 C   0  0  0  0  0  0  0  0  0  0  0  0
    0.0245    4.0617   -2.1624 C   0  0  0  0  0  0  0  0  0  0  0  0
    1.4017    4.2646   -2.0668 O   0  0  0  0  0  0  0  0  0  0  0  0
   -0.5571    2.8701   -1.6873 C   0  0  0  0  0  0  0  0  0  0  0  0
    0.2058    1.8550   -1.0989 C   0  0  0  0  0  0  0  0  0  0  0  0
   -2.5591   -0.6362   -0.3535 C   0  0  0  0  0  0  0  0  0  0  0  0
   -2.0701   -1.9279   -0.6054 C   0  0  0  0  0  0  0  0  0  0  0  0
   -2.7900   -3.0612   -0.1867 C   0  0  0  0  0  0  0  0  0  0  0  0
   -2.3189   -4.3660   -0.4036 O   0  0  0  0  0  0  0  0  0  0  0  0
   -1.0676   -4.6827   -1.0052 C   0  0  0  0  0  0  0  0  0  0  0  0
   -4.0194   -2.8965    0.4663 C   0  0  0  0  0  0  0  0  0  0  0  0
   -4.7222   -4.0312    0.8749 O   0  0  0  0  0  0  0  0  0  0  0  0
   -4.5348   -1.6091    0.7020 C   0  0  0  0  0  0  0  0  0  0  0  0
   -5.7736   -1.4848    1.3517 O   0  0  0  0  0  0  0  0  0  0  0  0
   -6.4095   -0.2463    1.6512 C   0  0  0  0  0  0  0  0  0  0  0  0
   -3.7989   -0.4849    0.2832 C   0  0  0  0  0  0  0  0  0  0  0  0
    2.2919   -0.8502   -1.2794 C   0  0  2  0  0  0  0  0  0  0  0  0
    1.6377   -1.9725   -1.8222 O   0  0  0  0  0  0  0  0  0  0  0  0
    3.8113   -1.0870   -1.1850 C   0  0  1  0  0  0  0  0  0  0  0  0
    4.4837    0.1384   -1.0382 O   0  0  0  0  0  0  0  0  0  0  0  0
    4.1492   -2.0180   -0.0035 C   0  0  1  0  0  0  0  0  0  0  0  0
    5.5348   -2.0391    0.2300 O   0  0  0  0  0  0  0  0  0  0  0  0
    3.4905   -2.5015    1.9721 H   0  0  0  0  0  0  0  0  0  0  0  0
    4.1383    0.4457    1.4181 H   0  0  0  0  0  0  0  0  0  0  0  0
    5.0128   -0.7358    2.4457 H   0  0  0  0  0  0  0  0  0  0  0  0
    2.5047    2.3154    5.3757 H   0  0  0  0  0  0  0  0  0  0  0  0
    1.5310    0.8549    4.9517 H   0  0  0  0  0  0  0  0  0  0  0  0
    2.9213    0.7086    6.1001 H   0  0  0  0  0  0  0  0  0  0  0  0
    2.1179    0.5083    0.4406 H   0  0  0  0  0  0  0  0  0  0  0  0
   -3.8207    3.5277   -2.4427 H   0  0  0  0  0  0  0  0  0  0  0  0
   -2.6021    6.7057   -3.7561 H   0  0  0  0  0  0  0  0  0  0  0  0
   -0.3469    5.9667   -3.1022 H   0  0  0  0  0  0  0  0  0  0  0  0
    1.8381    5.1150   -2.4031 H   0  0  0  0  0  0  0  0  0  0  0  0
    1.2720    1.9893   -0.9903 H   0  0  0  0  0  0  0  0  0  0  0  0
   -1.1435   -2.0476   -1.1482 H   0  0  0  0  0  0  0  0  0  0  0  0
   -0.9480   -5.7850   -1.0340 H   0  0  0  0  0  0  0  0  0  0  0  0
   -0.2377   -4.2507   -0.4072 H   0  0  0  0  0  0  0  0  0  0  0  0
   -1.0334   -4.2949   -2.0452 H   0  0  0  0  0  0  0  0  0  0  0  0
   -5.6146   -3.9738    1.3504 H   0  0  0  0  0  0  0  0  0  0  0  0
   -6.6157    0.3136    0.7147 H   0  0  0  0  0  0  0  0  0  0  0  0
   -5.7683    0.3587    2.3265 H   0  0  0  0  0  0  0  0  0  0  0  0
   -7.3725   -0.4482    2.1633 H   0  0  0  0  0  0  0  0  0  0  0  0
   -4.1786    0.5128    0.4606 H   0  0  0  0  0  0  0  0  0  0  0  0
    2.1224   -0.0093   -1.9840 H   0  0  0  0  0  0  0  0  0  0  0  0
    1.6822   -2.7092   -1.1602 H   0  0  0  0  0  0  0  0  0  0  0  0
    4.1581   -1.5815   -2.1232 H   0  0  0  0  0  0  0  0  0  0  0  0
    4.4880    0.5748   -1.9301 H   0  0  0  0  0  0  0  0  0  0  0  0
    3.8197   -3.0491   -0.2728 H   0  0  0  0  0  0  0  0  0  0  0  0
    5.9464   -2.5340   -0.5261 H   0  0  0  0  0  0  0  0  0  0  0  0
  1  2  1  0
  2  3  1  0
  3  4  1  0
  4  5  1  0
  4  6  2  0
  1  7  1  0
  7  8  1  0
  8  9  1  0
  9 10  1  0
 10 11  1  0
 11 12  2  0
 12 13  1  0
 13 14  2  0
 14 15  1  0
 15 16  1  0
 15 17  2  0
 17 18  1  0
 18 19  1  0
 18 20  2  0
 20 21  1  0
 11 22  1  0
 22 23  2  0
 23 24  1  0
 24 25  1  0
 25 26  1  0
 24 27  2  0
 27 28  1  0
 27 29  1  0
 29 30  1  0
 30 31  1  0
 29 32  2  0
  8 33  1  0
 33 34  1  0
 33 35  1  0
 35 36  1  0
 35 37  1  0
 37 38  1  0
 37  1  1  0
 21 10  2  0
 32 22  1  0
 20 13  1  0
  1 39  1  1
  2 40  1  0
  2 41  1  0
  5 42  1  0
  5 43  1  0
  5 44  1  0
  8 45  1  0
 14 46  1  0
 16 47  1  0
 17 48  1  0
 19 49  1  0
 21 50  1  0
 23 51  1  0
 26 52  1  0
 26 53  1  0
 26 54  1  0
 28 55  1  0
 31 56  1  0
 31 57  1  0
 31 58  1  0
 32 59  1  0
 33 60  1  6
 34 61  1  0
 35 62  1  6
 36 63  1  0
 37 64  1  6
 38 65  1  0
M  CHG  1  12   1
M  END
>  <LIG_ID>  (36) 
35

>  <_smiles>  (36) 
[H][C@]1(COC(C)=O)OC(OC2=C([O+]=C3C=C(O)C=C(O)C3=C2)C2=CC(OC)=C(O)C(OC)=C2)[C@]([H])(O)[C@@]([H])(O)[C@@]1([H])O

>  <_name>  (36) 
Malvidin 3-O-(6''-acetyl-galactoside)

>  <_molecular_weight>  (36) 
535.474

>  <_formula>  (36) 
C25H27O13

>  <_logP>  (36) 
1.264399999999999

>  <_molecular_wt_calculated>  (36) 
535.4780000000012

>  <_havy_atom_count>  (36) 
38

>  <_hydrogen_acceptors>  (36) 
12

>  <_hydrogen_donors>  (36) 
6

>  <_rotatable_bonds>  (36) 
16

>  <_amide_bonds>  (36) 
0

>  <_ring_count>  (36) 
4

$$$$
Petunidin 3-O-(6''-acetyl-glucoside)
     RDKit          3D

 62 65  0  0  0  0  0  0  0  0999 V2000
    3.6867   -0.2647   -0.1435 C   0  0  1  0  0  0  0  0  0  0  0  0
    4.3210    1.1295   -0.1212 C   0  0  0  0  0  0  0  0  0  0  0  0
    3.6497    1.9932   -1.0350 O   0  0  0  0  0  0  0  0  0  0  0  0
    4.0126    3.3304   -1.2142 C   0  0  0  0  0  0  0  0  0  0  0  0
    3.2462    4.1768   -2.1726 C   0  0  0  0  0  0  0  0  0  0  0  0
    4.9522    3.8388   -0.5442 O   0  0  0  0  0  0  0  0  0  0  0  0
    2.3016   -0.1447    0.1094 O   0  0  0  0  0  0  0  0  0  0  0  0
    1.7381   -1.4004    0.4661 C   0  0  1  0  0  0  0  0  0  0  0  0
    0.3166   -1.2931    0.4009 O   0  0  0  0  0  0  0  0  0  0  0  0
   -0.4770   -0.4398    1.1871 C   0  0  0  0  0  0  0  0  0  0  0  0
    0.0705    0.3886    2.1813 C   0  0  0  0  0  0  0  0  0  0  0  0
   -0.7544    1.2665    2.9035 C   0  0  0  0  0  0  0  0  0  0  0  0
   -0.2703    2.1406    3.9124 C   0  0  0  0  0  0  0  0  0  0  0  0
    1.0745    2.2067    4.2891 O   0  0  0  0  0  0  0  0  0  0  0  0
   -1.1662    2.9881    4.5760 C   0  0  0  0  0  0  0  0  0  0  0  0
   -2.5259    2.9861    4.2587 C   0  0  0  0  0  0  0  0  0  0  0  0
   -3.3908    3.8421    4.9370 O   0  0  0  0  0  0  0  0  0  0  0  0
   -3.0073    2.1276    3.2661 C   0  0  0  0  0  0  0  0  0  0  0  0
   -2.1340    1.2715    2.5902 C   0  0  0  0  0  0  0  0  0  0  0  0
   -2.6180    0.4641    1.6537 O   0  0  0  0  0  3  0  0  0  0  0  0
   -1.8656   -0.3851    0.9604 C   0  0  0  0  0  0  0  0  0  0  0  0
   -2.5269   -1.2358   -0.0557 C   0  0  0  0  0  0  0  0  0  0  0  0
   -3.5191   -0.6828   -0.8787 C   0  0  0  0  0  0  0  0  0  0  0  0
   -4.1726   -1.4694   -1.8472 C   0  0  0  0  0  0  0  0  0  0  0  0
   -5.1591   -0.9364   -2.6928 O   0  0  0  0  0  0  0  0  0  0  0  0
   -5.5990    0.4178   -2.6695 C   0  0  0  0  0  0  0  0  0  0  0  0
   -3.8314   -2.8286   -1.9759 C   0  0  0  0  0  0  0  0  0  0  0  0
   -4.4590   -3.6319   -2.9296 O   0  0  0  0  0  0  0  0  0  0  0  0
   -2.8541   -3.3906   -1.1372 C   0  0  0  0  0  0  0  0  0  0  0  0
   -2.5082   -4.7382   -1.2367 O   0  0  0  0  0  0  0  0  0  0  0  0
   -2.2142   -2.5986   -0.1809 C   0  0  0  0  0  0  0  0  0  0  0  0
    2.1880   -2.5641   -0.4663 C   0  0  2  0  0  0  0  0  0  0  0  0
    3.1273   -3.3610    0.2119 O   0  0  0  0  0  0  0  0  0  0  0  0
    2.8112   -2.0313   -1.7762 C   0  0  1  0  0  0  0  0  0  0  0  0
    1.8127   -1.5158   -2.6250 O   0  0  0  0  0  0  0  0  0  0  0  0
    3.9173   -0.9742   -1.5018 C   0  0  2  0  0  0  0  0  0  0  0  0
    5.1801   -1.5907   -1.4813 O   0  0  0  0  0  0  0  0  0  0  0  0
    4.1789   -0.8487    0.6717 H   0  0  0  0  0  0  0  0  0  0  0  0
    5.3981    1.0590   -0.3894 H   0  0  0  0  0  0  0  0  0  0  0  0
    4.2395    1.5474    0.9063 H   0  0  0  0  0  0  0  0  0  0  0  0
    2.4669    4.7444   -1.6231 H   0  0  0  0  0  0  0  0  0  0  0  0
    2.7591    3.5366   -2.9378 H   0  0  0  0  0  0  0  0  0  0  0  0
    3.9287    4.8889   -2.6827 H   0  0  0  0  0  0  0  0  0  0  0  0
    2.0167   -1.6466    1.5163 H   0  0  0  0  0  0  0  0  0  0  0  0
    1.1283    0.3450    2.3701 H   0  0  0  0  0  0  0  0  0  0  0  0
    1.8108    1.6468    3.8852 H   0  0  0  0  0  0  0  0  0  0  0  0
   -0.8003    3.6560    5.3461 H   0  0  0  0  0  0  0  0  0  0  0  0
   -4.3828    3.8655    4.7310 H   0  0  0  0  0  0  0  0  0  0  0  0
   -4.0618    2.1242    3.0188 H   0  0  0  0  0  0  0  0  0  0  0  0
   -3.7667    0.3648   -0.7687 H   0  0  0  0  0  0  0  0  0  0  0  0
   -4.7516    1.0987   -2.8965 H   0  0  0  0  0  0  0  0  0  0  0  0
   -6.0317    0.6619   -1.6763 H   0  0  0  0  0  0  0  0  0  0  0  0
   -6.3828    0.5572   -3.4419 H   0  0  0  0  0  0  0  0  0  0  0  0
   -5.1696   -3.2744   -3.5565 H   0  0  0  0  0  0  0  0  0  0  0  0
   -2.9410   -5.3580   -1.9108 H   0  0  0  0  0  0  0  0  0  0  0  0
   -1.4878   -3.0586    0.4773 H   0  0  0  0  0  0  0  0  0  0  0  0
    1.3016   -3.1934   -0.7211 H   0  0  0  0  0  0  0  0  0  0  0  0
    3.1694   -4.2304   -0.2661 H   0  0  0  0  0  0  0  0  0  0  0  0
    3.2639   -2.8922   -2.3158 H   0  0  0  0  0  0  0  0  0  0  0  0
    1.4352   -0.7016   -2.2030 H   0  0  0  0  0  0  0  0  0  0  0  0
    3.8931   -0.2206   -2.3249 H   0  0  0  0  0  0  0  0  0  0  0  0
    5.4326   -1.7632   -2.4260 H   0  0  0  0  0  0  0  0  0  0  0  0
  1  2  1  0
  2  3  1  0
  3  4  1  0
  4  5  1  0
  4  6  2  0
  1  7  1  0
  7  8  1  0
  8  9  1  0
  9 10  1  0
 10 11  2  0
 11 12  1  0
 12 13  2  0
 13 14  1  0
 13 15  1  0
 15 16  2  0
 16 17  1  0
 16 18  1  0
 18 19  2  0
 19 20  1  0
 20 21  2  0
 21 22  1  0
 22 23  2  0
 23 24  1  0
 24 25  1  0
 25 26  1  0
 24 27  2  0
 27 28  1  0
 27 29  1  0
 29 30  1  0
 29 31  2  0
  8 32  1  0
 32 33  1  0
 32 34  1  0
 34 35  1  0
 34 36  1  0
 36 37  1  0
 36  1  1  0
 21 10  1  0
 31 22  1  0
 19 12  1  0
  1 38  1  1
  2 39  1  0
  2 40  1  0
  5 41  1  0
  5 42  1  0
  5 43  1  0
  8 44  1  1
 11 45  1  0
 14 46  1  0
 15 47  1  0
 17 48  1  0
 18 49  1  0
 23 50  1  0
 26 51  1  0
 26 52  1  0
 26 53  1  0
 28 54  1  0
 30 55  1  0
 31 56  1  0
 32 57  1  6
 33 58  1  0
 34 59  1  6
 35 60  1  0
 36 61  1  6
 37 62  1  0
M  CHG  1  20   1
M  END
>  <LIG_ID>  (37) 
36

>  <_smiles>  (37) 
[H][C@]1(COC(C)=O)O[C@@]([H])(OC2=CC3=C(O)C=C(O)C=C3[O+]=C2C2=CC(OC)=C(O)C(O)=C2)[C@]([H])(O)[C@@]([H])(O)[C@]1([H])O

>  <_name>  (37) 
Petunidin 3-O-(6''-acetyl-glucoside)

>  <_molecular_weight>  (37) 
521.448

>  <_formula>  (37) 
C24H25O13

>  <_logP>  (37) 
0.9613999999999994

>  <_molecular_wt_calculated>  (37) 
521.4510000000005

>  <_havy_atom_count>  (37) 
37

>  <_hydrogen_acceptors>  (37) 
12

>  <_hydrogen_donors>  (37) 
7

>  <_rotatable_bonds>  (37) 
15

>  <_amide_bonds>  (37) 
0

>  <_ring_count>  (37) 
4

$$$$
Malvidin 3-O-(6''-acetyl-glucoside)
     RDKit          3D

 65 68  0  0  0  0  0  0  0  0999 V2000
   -6.7753   -1.3702    0.8427 C   0  0  0  0  0  0  0  0  0  0  0  0
   -5.9039   -2.3089    0.2203 O   0  0  0  0  0  0  0  0  0  0  0  0
   -4.6188   -2.0065   -0.2578 C   0  0  0  0  0  0  0  0  0  0  0  0
   -4.0681   -0.7156   -0.1571 C   0  0  0  0  0  0  0  0  0  0  0  0
   -2.7774   -0.4508   -0.6345 C   0  0  0  0  0  0  0  0  0  0  0  0
   -2.0499   -1.4791   -1.2544 C   0  0  0  0  0  0  0  0  0  0  0  0
   -2.5815   -2.7773   -1.3531 C   0  0  0  0  0  0  0  0  0  0  0  0
   -1.8608   -3.8293   -1.9417 O   0  0  0  0  0  0  0  0  0  0  0  0
   -0.5343   -3.7159   -2.4485 C   0  0  0  0  0  0  0  0  0  0  0  0
   -3.8702   -3.0333   -0.8508 C   0  0  0  0  0  0  0  0  0  0  0  0
   -4.4271   -4.3104   -0.9357 O   0  0  0  0  0  0  0  0  0  0  0  0
   -2.2240    0.9189   -0.5262 C   0  0  0  0  0  0  0  0  0  0  0  0
   -3.0280    1.9438   -0.7912 O   0  0  0  0  0  3  0  0  0  0  0  0
   -2.6321    3.2103   -0.7516 C   0  0  0  0  0  0  0  0  0  0  0  0
   -1.2973    3.5380   -0.4169 C   0  0  0  0  0  0  0  0  0  0  0  0
   -0.4273    2.4787   -0.1090 C   0  0  0  0  0  0  0  0  0  0  0  0
   -0.8867    1.1510   -0.1498 C   0  0  0  0  0  0  0  0  0  0  0  0
   -0.0777    0.0555    0.2065 O   0  0  0  0  0  0  0  0  0  0  0  0
    1.3464    0.0368    0.3265 C   0  0  0  0  0  0  0  0  0  0  0  0
    1.6925   -1.1160    1.0725 O   0  0  0  0  0  0  0  0  0  0  0  0
    3.0836   -1.1481    1.3443 C   0  0  0  0  0  0  0  0  0  0  0  0
    3.3471   -2.3220    2.3032 C   0  0  0  0  0  0  0  0  0  0  0  0
    4.7004   -2.3382    2.7564 O   0  0  0  0  0  0  0  0  0  0  0  0
    5.2044   -1.4489    3.7119 C   0  0  0  0  0  0  0  0  0  0  0  0
    6.6467   -1.5121    4.0829 C   0  0  0  0  0  0  0  0  0  0  0  0
    4.4451   -0.6289    4.2962 O   0  0  0  0  0  0  0  0  0  0  0  0
    3.8783   -1.3071    0.0262 C   0  0  0  0  0  0  0  0  0  0  0  0
    5.2574   -1.2734    0.2922 O   0  0  0  0  0  0  0  0  0  0  0  0
    3.5160   -0.1656   -0.9392 C   0  0  0  0  0  0  0  0  0  0  0  0
    4.0898   -0.4221   -2.1955 O   0  0  0  0  0  0  0  0  0  0  0  0
    1.9897   -0.0436   -1.0759 C   0  0  0  0  0  0  0  0  0  0  0  0
    1.6882    1.1074   -1.8223 O   0  0  0  0  0  0  0  0  0  0  0  0
   -0.9044    4.9026   -0.3954 C   0  0  0  0  0  0  0  0  0  0  0  0
    0.3935    5.3225   -0.0887 O   0  0  0  0  0  0  0  0  0  0  0  0
   -1.8462    5.8945   -0.6959 C   0  0  0  0  0  0  0  0  0  0  0  0
   -3.1648    5.5582   -1.0210 C   0  0  0  0  0  0  0  0  0  0  0  0
   -4.0973    6.5493   -1.3194 O   0  0  0  0  0  0  0  0  0  0  0  0
   -3.5526    4.2187   -1.0490 C   0  0  0  0  0  0  0  0  0  0  0  0
   -7.0092   -0.5422    0.1405 H   0  0  0  0  0  0  0  0  0  0  0  0
   -7.7210   -1.8805    1.1173 H   0  0  0  0  0  0  0  0  0  0  0  0
   -6.3072   -0.9687    1.7662 H   0  0  0  0  0  0  0  0  0  0  0  0
   -4.6320    0.0846    0.3039 H   0  0  0  0  0  0  0  0  0  0  0  0
   -1.0796   -1.2596   -1.6773 H   0  0  0  0  0  0  0  0  0  0  0  0
   -0.2066   -4.7043   -2.8303 H   0  0  0  0  0  0  0  0  0  0  0  0
    0.1584   -3.3994   -1.6397 H   0  0  0  0  0  0  0  0  0  0  0  0
   -0.5056   -2.9854   -3.2843 H   0  0  0  0  0  0  0  0  0  0  0  0
   -3.9335   -5.0898   -1.3538 H   0  0  0  0  0  0  0  0  0  0  0  0
    0.5889    2.6732    0.1766 H   0  0  0  0  0  0  0  0  0  0  0  0
    1.6871    0.9439    0.8726 H   0  0  0  0  0  0  0  0  0  0  0  0
    3.3969   -0.2109    1.8606 H   0  0  0  0  0  0  0  0  0  0  0  0
    2.6614   -2.2606    3.1768 H   0  0  0  0  0  0  0  0  0  0  0  0
    3.1342   -3.2806    1.7835 H   0  0  0  0  0  0  0  0  0  0  0  0
    7.2358   -1.9303    3.2400 H   0  0  0  0  0  0  0  0  0  0  0  0
    7.0263   -0.4947    4.3148 H   0  0  0  0  0  0  0  0  0  0  0  0
    6.7713   -2.1625    4.9733 H   0  0  0  0  0  0  0  0  0  0  0  0
    3.5996   -2.2828   -0.4403 H   0  0  0  0  0  0  0  0  0  0  0  0
    5.7099   -1.7175   -0.4717 H   0  0  0  0  0  0  0  0  0  0  0  0
    3.9231    0.7878   -0.5229 H   0  0  0  0  0  0  0  0  0  0  0  0
    4.1397    0.4469   -2.6730 H   0  0  0  0  0  0  0  0  0  0  0  0
    1.6088   -0.9581   -1.5933 H   0  0  0  0  0  0  0  0  0  0  0  0
    0.8869    0.8994   -2.3703 H   0  0  0  0  0  0  0  0  0  0  0  0
    1.1622    4.7024    0.1198 H   0  0  0  0  0  0  0  0  0  0  0  0
   -1.5477    6.9354   -0.6779 H   0  0  0  0  0  0  0  0  0  0  0  0
   -3.8485    7.5316   -1.3086 H   0  0  0  0  0  0  0  0  0  0  0  0
   -4.5732    3.9599   -1.3033 H   0  0  0  0  0  0  0  0  0  0  0  0
  1  2  1  0
  2  3  1  0
  3  4  2  0
  4  5  1  0
  5  6  2  0
  6  7  1  0
  7  8  1  0
  8  9  1  0
  7 10  2  0
 10 11  1  0
  5 12  1  0
 12 13  2  0
 13 14  1  0
 14 15  2  0
 15 16  1  0
 16 17  2  0
 17 18  1  0
 18 19  1  0
 19 20  1  0
 20 21  1  0
 21 22  1  0
 22 23  1  0
 23 24  1  0
 24 25  1  0
 24 26  2  0
 21 27  1  0
 27 28  1  0
 27 29  1  0
 29 30  1  0
 29 31  1  0
 31 32  1  0
 15 33  1  0
 33 34  1  0
 33 35  2  0
 35 36  1  0
 36 37  1  0
 36 38  2  0
 10  3  1  0
 17 12  1  0
 31 19  1  0
 38 14  1  0
  1 39  1  0
  1 40  1  0
  1 41  1  0
  4 42  1  0
  6 43  1  0
  9 44  1  0
  9 45  1  0
  9 46  1  0
 11 47  1  0
 16 48  1  0
 19 49  1  0
 21 50  1  0
 22 51  1  0
 22 52  1  0
 25 53  1  0
 25 54  1  0
 25 55  1  0
 27 56  1  0
 28 57  1  0
 29 58  1  0
 30 59  1  0
 31 60  1  0
 32 61  1  0
 34 62  1  0
 35 63  1  0
 37 64  1  0
 38 65  1  0
M  CHG  1  13   1
M  END
>  <LIG_ID>  (38) 
37

>  <_smiles>  (38) 
COC1=CC(=CC(OC)=C1O)C1=[O+]C2=C(C=C1OC1OC(COC(C)=O)C(O)C(O)C1O)C(O)=CC(O)=C2

>  <_name>  (38) 
Malvidin 3-O-(6''-acetyl-glucoside)

>  <_molecular_weight>  (38) 
535.474

>  <_formula>  (38) 
C25H27O13

>  <_logP>  (38) 
1.2643999999999993

>  <_molecular_wt_calculated>  (38) 
535.4780000000012

>  <_havy_atom_count>  (38) 
38

>  <_hydrogen_acceptors>  (38) 
12

>  <_hydrogen_donors>  (38) 
6

>  <_rotatable_bonds>  (38) 
16

>  <_amide_bonds>  (38) 
0

>  <_ring_count>  (38) 
4

$$$$
Peonidin 3-O-(6''-acetyl-glucoside)
     RDKit          3D

 61 64  0  0  0  0  0  0  0  0999 V2000
    3.0886   -0.9045   -0.1019 C   0  0  1  0  0  0  0  0  0  0  0  0
    4.0564   -0.4082    0.9775 C   0  0  0  0  0  0  0  0  0  0  0  0
    5.1302   -1.3319    1.1345 O   0  0  0  0  0  0  0  0  0  0  0  0
    6.1701   -1.1307    2.0458 C   0  0  0  0  0  0  0  0  0  0  0  0
    7.2509   -2.1506    2.1639 C   0  0  0  0  0  0  0  0  0  0  0  0
    6.1821   -0.1176    2.7968 O   0  0  0  0  0  0  0  0  0  0  0  0
    1.9420   -0.0660   -0.0804 O   0  0  0  0  0  0  0  0  0  0  0  0
    1.0873   -0.3723   -1.1645 C   0  0  1  0  0  0  0  0  0  0  0  0
   -0.1853    0.2345   -0.9478 O   0  0  0  0  0  0  0  0  0  0  0  0
   -1.0588   -0.0652    0.1119 C   0  0  0  0  0  0  0  0  0  0  0  0
   -0.7896   -1.0883    1.0367 C   0  0  0  0  0  0  0  0  0  0  0  0
   -1.7129   -1.3846    2.0525 C   0  0  0  0  0  0  0  0  0  0  0  0
   -2.9064   -0.6262    2.0907 C   0  0  0  0  0  0  0  0  0  0  0  0
   -3.8740   -0.8833    3.0654 C   0  0  0  0  0  0  0  0  0  0  0  0
   -3.6726   -1.8885    4.0113 C   0  0  0  0  0  0  0  0  0  0  0  0
   -4.6496   -2.1308    4.9744 O   0  0  0  0  0  0  0  0  0  0  0  0
   -2.4940   -2.6424    3.9859 C   0  0  0  0  0  0  0  0  0  0  0  0
   -1.5082   -2.4031    3.0205 C   0  0  0  0  0  0  0  0  0  0  0  0
   -0.3564   -3.1942    3.0690 O   0  0  0  0  0  0  0  0  0  0  0  0
   -3.1231    0.3390    1.2049 O   0  0  0  0  0  3  0  0  0  0  0  0
   -2.2606    0.6568    0.2440 C   0  0  0  0  0  0  0  0  0  0  0  0
   -2.6143    1.7642   -0.6735 C   0  0  0  0  0  0  0  0  0  0  0  0
   -3.9330    1.8792   -1.1420 C   0  0  0  0  0  0  0  0  0  0  0  0
   -4.3026    2.9328   -2.0022 C   0  0  0  0  0  0  0  0  0  0  0  0
   -5.6103    3.0648   -2.4966 O   0  0  0  0  0  0  0  0  0  0  0  0
   -6.6817    2.1767   -2.1951 C   0  0  0  0  0  0  0  0  0  0  0  0
   -3.3360    3.8831   -2.3784 C   0  0  0  0  0  0  0  0  0  0  0  0
   -3.6578    4.9405   -3.2292 O   0  0  0  0  0  0  0  0  0  0  0  0
   -2.0286    3.7805   -1.8950 C   0  0  0  0  0  0  0  0  0  0  0  0
   -1.6691    2.7352   -1.0433 C   0  0  0  0  0  0  0  0  0  0  0  0
    1.6969    0.1911   -2.4663 C   0  0  2  0  0  0  0  0  0  0  0  0
    1.2000   -0.4978   -3.5872 O   0  0  0  0  0  0  0  0  0  0  0  0
    3.2508    0.1666   -2.4297 C   0  0  1  0  0  0  0  0  0  0  0  0
    3.7367    1.3992   -1.9592 O   0  0  0  0  0  0  0  0  0  0  0  0
    3.7786   -0.9540   -1.5067 C   0  0  2  0  0  0  0  0  0  0  0  0
    3.5376   -2.2092   -2.0920 O   0  0  0  0  0  0  0  0  0  0  0  0
    2.7811   -1.9329    0.2006 H   0  0  0  0  0  0  0  0  0  0  0  0
    4.4547    0.5920    0.6980 H   0  0  0  0  0  0  0  0  0  0  0  0
    3.5116   -0.3159    1.9429 H   0  0  0  0  0  0  0  0  0  0  0  0
    7.0175   -2.8414    3.0005 H   0  0  0  0  0  0  0  0  0  0  0  0
    7.3276   -2.7324    1.2215 H   0  0  0  0  0  0  0  0  0  0  0  0
    8.2246   -1.6536    2.3585 H   0  0  0  0  0  0  0  0  0  0  0  0
    0.9352   -1.4742   -1.2606 H   0  0  0  0  0  0  0  0  0  0  0  0
    0.1235   -1.6483    0.9414 H   0  0  0  0  0  0  0  0  0  0  0  0
   -4.7860   -0.2993    3.0877 H   0  0  0  0  0  0  0  0  0  0  0  0
   -4.5347   -2.8530    5.6759 H   0  0  0  0  0  0  0  0  0  0  0  0
   -2.3395   -3.4203    4.7235 H   0  0  0  0  0  0  0  0  0  0  0  0
    0.4307   -3.0990    2.4442 H   0  0  0  0  0  0  0  0  0  0  0  0
   -4.6620    1.1375   -0.8431 H   0  0  0  0  0  0  0  0  0  0  0  0
   -6.8786    2.1728   -1.1021 H   0  0  0  0  0  0  0  0  0  0  0  0
   -7.5965    2.5216   -2.7191 H   0  0  0  0  0  0  0  0  0  0  0  0
   -6.4377    1.1512   -2.5443 H   0  0  0  0  0  0  0  0  0  0  0  0
   -4.5889    5.0646   -3.6083 H   0  0  0  0  0  0  0  0  0  0  0  0
   -1.2894    4.5205   -2.1748 H   0  0  0  0  0  0  0  0  0  0  0  0
   -0.6584    2.7010   -0.6570 H   0  0  0  0  0  0  0  0  0  0  0  0
    1.3734    1.2509   -2.5704 H   0  0  0  0  0  0  0  0  0  0  0  0
    1.5213   -1.4351   -3.5351 H   0  0  0  0  0  0  0  0  0  0  0  0
    3.6475   -0.0067   -3.4584 H   0  0  0  0  0  0  0  0  0  0  0  0
    3.6665    2.0436   -2.7115 H   0  0  0  0  0  0  0  0  0  0  0  0
    4.8819   -0.8224   -1.3990 H   0  0  0  0  0  0  0  0  0  0  0  0
    4.1915   -2.3159   -2.8317 H   0  0  0  0  0  0  0  0  0  0  0  0
  1  2  1  0
  2  3  1  0
  3  4  1  0
  4  5  1  0
  4  6  2  0
  1  7  1  0
  7  8  1  0
  8  9  1  0
  9 10  1  0
 10 11  2  0
 11 12  1  0
 12 13  2  0
 13 14  1  0
 14 15  2  0
 15 16  1  0
 15 17  1  0
 17 18  2  0
 18 19  1  0
 13 20  1  0
 20 21  2  0
 21 22  1  0
 22 23  2  0
 23 24  1  0
 24 25  1  0
 25 26  1  0
 24 27  2  0
 27 28  1  0
 27 29  1  0
 29 30  2  0
  8 31  1  0
 31 32  1  0
 31 33  1  0
 33 34  1  0
 33 35  1  0
 35 36  1  0
 35  1  1  0
 21 10  1  0
 30 22  1  0
 18 12  1  0
  1 37  1  1
  2 38  1  0
  2 39  1  0
  5 40  1  0
  5 41  1  0
  5 42  1  0
  8 43  1  6
 11 44  1  0
 14 45  1  0
 16 46  1  0
 17 47  1  0
 19 48  1  0
 23 49  1  0
 26 50  1  0
 26 51  1  0
 26 52  1  0
 28 53  1  0
 29 54  1  0
 30 55  1  0
 31 56  1  6
 32 57  1  0
 33 58  1  6
 34 59  1  0
 35 60  1  1
 36 61  1  0
M  CHG  1  20   1
M  END
>  <LIG_ID>  (39) 
38

>  <_smiles>  (39) 
[H][C@]1(COC(C)=O)O[C@@]([H])(OC2=CC3=C(C=C(O)C=C3O)[O+]=C2C2=CC(OC)=C(O)C=C2)[C@]([H])(O)[C@@]([H])(O)[C@]1([H])O

>  <_name>  (39) 
Peonidin 3-O-(6''-acetyl-glucoside)

>  <_molecular_weight>  (39) 
505.448

>  <_formula>  (39) 
C24H25O12

>  <_logP>  (39) 
1.2557999999999991

>  <_molecular_wt_calculated>  (39) 
505.4519999999999

>  <_havy_atom_count>  (39) 
36

>  <_hydrogen_acceptors>  (39) 
11

>  <_hydrogen_donors>  (39) 
6

>  <_rotatable_bonds>  (39) 
14

>  <_amide_bonds>  (39) 
0

>  <_ring_count>  (39) 
4

$$$$
Pelargonidin 3-O-arabinoside
     RDKit          3D

 48 51  0  0  0  0  0  0  0  0999 V2000
    3.5254    0.1291   -1.3484 C   0  0  1  0  0  0  0  0  0  0  0  0
    4.4736   -0.9921   -1.7840 C   0  0  0  0  0  0  0  0  0  0  0  0
    5.6704   -0.4478   -2.2679 O   0  0  0  0  0  0  0  0  0  0  0  0
    2.2970   -0.4258   -0.9285 O   0  0  0  0  0  0  0  0  0  0  0  0
    1.9579    0.1591    0.3109 C   0  0  2  0  0  0  0  0  0  0  0  0
    0.5988    0.5906    0.2923 O   0  0  0  0  0  0  0  0  0  0  0  0
   -0.5206   -0.2537    0.2031 C   0  0  0  0  0  0  0  0  0  0  0  0
   -0.3977   -1.6498    0.1061 C   0  0  0  0  0  0  0  0  0  0  0  0
   -1.5419   -2.4432   -0.0346 C   0  0  0  0  0  0  0  0  0  0  0  0
   -1.4697   -3.8454   -0.1454 C   0  0  0  0  0  0  0  0  0  0  0  0
   -0.2357   -4.4957   -0.1101 O   0  0  0  0  0  0  0  0  0  0  0  0
   -2.6493   -4.5902   -0.2928 C   0  0  0  0  0  0  0  0  0  0  0  0
   -3.8946   -3.9482   -0.3316 C   0  0  0  0  0  0  0  0  0  0  0  0
   -5.0679   -4.6847   -0.4787 O   0  0  0  0  0  0  0  0  0  0  0  0
   -3.9646   -2.5564   -0.2217 C   0  0  0  0  0  0  0  0  0  0  0  0
   -2.7972   -1.8012   -0.0728 C   0  0  0  0  0  0  0  0  0  0  0  0
   -2.8789   -0.4799    0.0347 O   0  0  0  0  0  3  0  0  0  0  0  0
   -1.8149    0.3071    0.1826 C   0  0  0  0  0  0  0  0  0  0  0  0
   -2.0379    1.7661    0.3033 C   0  0  0  0  0  0  0  0  0  0  0  0
   -3.0054    2.3868   -0.5042 C   0  0  0  0  0  0  0  0  0  0  0  0
   -3.2435    3.7602   -0.3951 C   0  0  0  0  0  0  0  0  0  0  0  0
   -2.5278    4.5272    0.5334 C   0  0  0  0  0  0  0  0  0  0  0  0
   -2.7555    5.8964    0.6501 O   0  0  0  0  0  0  0  0  0  0  0  0
   -1.5784    3.9124    1.3551 C   0  0  0  0  0  0  0  0  0  0  0  0
   -1.3381    2.5393    1.2483 C   0  0  0  0  0  0  0  0  0  0  0  0
    2.8688    1.3514    0.5558 C   0  0  1  0  0  0  0  0  0  0  0  0
    3.1559    1.5119    1.9197 O   0  0  0  0  0  0  0  0  0  0  0  0
    4.1024    0.9709   -0.2122 C   0  0  2  0  0  0  0  0  0  0  0  0
    4.7648    2.1025   -0.7131 O   0  0  0  0  0  0  0  0  0  0  0  0
    3.3195    0.7799   -2.2285 H   0  0  0  0  0  0  0  0  0  0  0  0
    4.6818   -1.6676   -0.9236 H   0  0  0  0  0  0  0  0  0  0  0  0
    3.9850   -1.5863   -2.5884 H   0  0  0  0  0  0  0  0  0  0  0  0
    6.2394   -1.2194   -2.5242 H   0  0  0  0  0  0  0  0  0  0  0  0
    2.1037   -0.5936    1.1185 H   0  0  0  0  0  0  0  0  0  0  0  0
    0.5776   -2.1158    0.1274 H   0  0  0  0  0  0  0  0  0  0  0  0
   -0.1637   -5.5034   -0.1886 H   0  0  0  0  0  0  0  0  0  0  0  0
   -2.5980   -5.6684   -0.3782 H   0  0  0  0  0  0  0  0  0  0  0  0
   -5.0526   -5.6946   -0.5610 H   0  0  0  0  0  0  0  0  0  0  0  0
   -4.9277   -2.0617   -0.2509 H   0  0  0  0  0  0  0  0  0  0  0  0
   -3.5675    1.8101   -1.2287 H   0  0  0  0  0  0  0  0  0  0  0  0
   -3.9848    4.2266   -1.0314 H   0  0  0  0  0  0  0  0  0  0  0  0
   -3.4378    6.3710    0.0703 H   0  0  0  0  0  0  0  0  0  0  0  0
   -1.0322    4.4979    2.0836 H   0  0  0  0  0  0  0  0  0  0  0  0
   -0.6236    2.0812    1.9201 H   0  0  0  0  0  0  0  0  0  0  0  0
    2.4235    2.2829    0.1301 H   0  0  0  0  0  0  0  0  0  0  0  0
    2.3370    1.8905    2.3341 H   0  0  0  0  0  0  0  0  0  0  0  0
    4.7862    0.3602    0.4259 H   0  0  0  0  0  0  0  0  0  0  0  0
    5.2386    2.5136    0.0562 H   0  0  0  0  0  0  0  0  0  0  0  0
  1  2  1  0
  2  3  1  0
  1  4  1  0
  4  5  1  0
  5  6  1  0
  6  7  1  0
  7  8  2  0
  8  9  1  0
  9 10  2  0
 10 11  1  0
 10 12  1  0
 12 13  2  0
 13 14  1  0
 13 15  1  0
 15 16  2  0
 16 17  1  0
 17 18  2  0
 18 19  1  0
 19 20  2  0
 20 21  1  0
 21 22  2  0
 22 23  1  0
 22 24  1  0
 24 25  2  0
  5 26  1  0
 26 27  1  0
 26 28  1  0
 28 29  1  0
 28  1  1  0
 18  7  1  0
 25 19  1  0
 16  9  1  0
  1 30  1  6
  2 31  1  0
  2 32  1  0
  3 33  1  0
  5 34  1  1
  8 35  1  0
 11 36  1  0
 12 37  1  0
 14 38  1  0
 15 39  1  0
 20 40  1  0
 21 41  1  0
 23 42  1  0
 24 43  1  0
 25 44  1  0
 26 45  1  6
 27 46  1  0
 28 47  1  1
 29 48  1  0
M  CHG  1  17   1
M  END
>  <LIG_ID>  (40) 
39

>  <_smiles>  (40) 
[H][C@]1(CO)O[C@]([H])(OC2=CC3=C(O)C=C(O)C=C3[O+]=C2C2=CC=C(O)C=C2)[C@@]([H])(O)[C@]1([H])O

>  <_name>  (40) 
Pelargonidin 3-O-arabinoside

>  <_molecular_weight>  (40) 
403.359

>  <_formula>  (40) 
C20H19O9

>  <_logP>  (40) 
1.3155

>  <_molecular_wt_calculated>  (40) 
403.36299999999983

>  <_havy_atom_count>  (40) 
29

>  <_hydrogen_acceptors>  (40) 
8

>  <_hydrogen_donors>  (40) 
6

>  <_rotatable_bonds>  (40) 
10

>  <_amide_bonds>  (40) 
0

>  <_ring_count>  (40) 
4

$$$$
Delphinidin 3-O-rutinoside
     RDKit          3D

 74 78  0  0  0  0  0  0  0  0999 V2000
    6.0171   -0.5271    1.5651 C   0  0  0  0  0  0  0  0  0  0  0  0
    4.9111   -0.7506    0.5321 C   0  0  2  0  0  0  0  0  0  0  0  0
    3.6920   -0.2744    1.0810 O   0  0  0  0  0  0  0  0  0  0  0  0
    2.6280   -0.3464    0.1412 C   0  0  1  0  0  0  0  0  0  0  0  0
    2.8909    0.4493   -1.0058 O   0  0  0  0  0  0  0  0  0  0  0  0
    2.7525    1.8299   -0.7168 C   0  0  0  0  0  0  0  0  0  0  0  0
    1.4544    2.3692   -1.3354 C   0  0  1  0  0  0  0  0  0  0  0  0
    0.3596    1.6502   -0.8055 O   0  0  0  0  0  0  0  0  0  0  0  0
   -0.8115    1.8732   -1.5757 C   0  0  1  0  0  0  0  0  0  0  0  0
   -1.9136    1.2770   -0.8923 O   0  0  0  0  0  0  0  0  0  0  0  0
   -2.0455   -0.0946   -0.6133 C   0  0  0  0  0  0  0  0  0  0  0  0
   -1.3071   -1.0721   -1.3017 C   0  0  0  0  0  0  0  0  0  0  0  0
   -1.5236   -2.4288   -1.0329 C   0  0  0  0  0  0  0  0  0  0  0  0
   -0.8372   -3.4476   -1.7230 C   0  0  0  0  0  0  0  0  0  0  0  0
    0.0725   -3.1319   -2.7327 O   0  0  0  0  0  0  0  0  0  0  0  0
   -1.0798   -4.7898   -1.3969 C   0  0  0  0  0  0  0  0  0  0  0  0
   -2.0094   -5.1234   -0.4068 C   0  0  0  0  0  0  0  0  0  0  0  0
   -2.2344   -6.4636   -0.1002 O   0  0  0  0  0  0  0  0  0  0  0  0
   -2.7081   -4.1117    0.2641 C   0  0  0  0  0  0  0  0  0  0  0  0
   -2.4722   -2.7689   -0.0460 C   0  0  0  0  0  0  0  0  0  0  0  0
   -3.1464   -1.8195    0.5927 O   0  0  0  0  0  3  0  0  0  0  0  0
   -2.9730   -0.5202    0.3600 C   0  0  0  0  0  0  0  0  0  0  0  0
   -3.7785    0.4431    1.1426 C   0  0  0  0  0  0  0  0  0  0  0  0
   -5.1394    0.1873    1.3666 C   0  0  0  0  0  0  0  0  0  0  0  0
   -5.9176    1.0810    2.1150 C   0  0  0  0  0  0  0  0  0  0  0  0
   -7.2730    0.8306    2.3226 O   0  0  0  0  0  0  0  0  0  0  0  0
   -5.3347    2.2331    2.6587 C   0  0  0  0  0  0  0  0  0  0  0  0
   -6.1259    3.1137    3.3970 O   0  0  0  0  0  0  0  0  0  0  0  0
   -3.9667    2.4851    2.4598 C   0  0  0  0  0  0  0  0  0  0  0  0
   -3.3788    3.6232    3.0100 O   0  0  0  0  0  0  0  0  0  0  0  0
   -3.1939    1.5871    1.7113 C   0  0  0  0  0  0  0  0  0  0  0  0
   -1.1124    3.3846   -1.7951 C   0  0  2  0  0  0  0  0  0  0  0  0
   -0.9226    3.6981   -3.1528 O   0  0  0  0  0  0  0  0  0  0  0  0
   -0.2046    4.2847   -0.9279 C   0  0  1  0  0  0  0  0  0  0  0  0
   -0.6325    4.2734    0.4136 O   0  0  0  0  0  0  0  0  0  0  0  0
    1.2918    3.8855   -1.0472 C   0  0  2  0  0  0  0  0  0  0  0  0
    1.9030    4.6107   -2.0845 O   0  0  0  0  0  0  0  0  0  0  0  0
    2.3577   -1.8028   -0.2797 C   0  0  2  0  0  0  0  0  0  0  0  0
    1.8805   -2.5400    0.8181 O   0  0  0  0  0  0  0  0  0  0  0  0
    3.6417   -2.4516   -0.8229 C   0  0  2  0  0  0  0  0  0  0  0  0
    3.4392   -3.8252   -1.0348 O   0  0  0  0  0  0  0  0  0  0  0  0
    4.8020   -2.2471    0.1646 C   0  0  1  0  0  0  0  0  0  0  0  0
    6.0036   -2.6769   -0.4240 O   0  0  0  0  0  0  0  0  0  0  0  0
    7.0028   -0.8362    1.1571 H   0  0  0  0  0  0  0  0  0  0  0  0
    5.8078   -1.1056    2.4904 H   0  0  0  0  0  0  0  0  0  0  0  0
    6.0724    0.5512    1.8263 H   0  0  0  0  0  0  0  0  0  0  0  0
    5.1907   -0.1617   -0.3719 H   0  0  0  0  0  0  0  0  0  0  0  0
    1.6998    0.0053    0.6485 H   0  0  0  0  0  0  0  0  0  0  0  0
    3.6116    2.3610   -1.1796 H   0  0  0  0  0  0  0  0  0  0  0  0
    2.7907    2.0659    0.3742 H   0  0  0  0  0  0  0  0  0  0  0  0
    1.5270    2.2001   -2.4374 H   0  0  0  0  0  0  0  0  0  0  0  0
   -0.7084    1.3808   -2.5690 H   0  0  0  0  0  0  0  0  0  0  0  0
   -0.5869   -0.7862   -2.0546 H   0  0  0  0  0  0  0  0  0  0  0  0
    0.5740   -3.8512   -3.2404 H   0  0  0  0  0  0  0  0  0  0  0  0
   -0.5497   -5.5771   -1.9181 H   0  0  0  0  0  0  0  0  0  0  0  0
   -2.9017   -6.7395    0.6107 H   0  0  0  0  0  0  0  0  0  0  0  0
   -3.4337   -4.3680    1.0261 H   0  0  0  0  0  0  0  0  0  0  0  0
   -5.6002   -0.6996    0.9481 H   0  0  0  0  0  0  0  0  0  0  0  0
   -7.7245    0.0066    1.9429 H   0  0  0  0  0  0  0  0  0  0  0  0
   -5.7500    3.9587    3.8103 H   0  0  0  0  0  0  0  0  0  0  0  0
   -2.3947    3.8278    2.8811 H   0  0  0  0  0  0  0  0  0  0  0  0
   -2.1340    1.7718    1.5955 H   0  0  0  0  0  0  0  0  0  0  0  0
   -2.1761    3.5894   -1.5246 H   0  0  0  0  0  0  0  0  0  0  0  0
   -1.4055    4.5485   -3.3253 H   0  0  0  0  0  0  0  0  0  0  0  0
   -0.3220    5.3332   -1.2803 H   0  0  0  0  0  0  0  0  0  0  0  0
   -0.4378    3.3798    0.7956 H   0  0  0  0  0  0  0  0  0  0  0  0
    1.7920    4.1409   -0.0822 H   0  0  0  0  0  0  0  0  0  0  0  0
    2.0661    5.5276   -1.7400 H   0  0  0  0  0  0  0  0  0  0  0  0
    1.5980   -1.8038   -1.0921 H   0  0  0  0  0  0  0  0  0  0  0  0
    0.9209   -2.3082    0.9253 H   0  0  0  0  0  0  0  0  0  0  0  0
    3.9129   -1.9636   -1.7896 H   0  0  0  0  0  0  0  0  0  0  0  0
    2.8697   -3.9088   -1.8437 H   0  0  0  0  0  0  0  0  0  0  0  0
    4.6013   -2.8295    1.0959 H   0  0  0  0  0  0  0  0  0  0  0  0
    6.0324   -3.6649   -0.3321 H   0  0  0  0  0  0  0  0  0  0  0  0
  1  2  1  0
  2  3  1  0
  3  4  1  0
  4  5  1  0
  5  6  1  0
  6  7  1  0
  7  8  1  0
  8  9  1  0
  9 10  1  0
 10 11  1  0
 11 12  2  0
 12 13  1  0
 13 14  2  0
 14 15  1  0
 14 16  1  0
 16 17  2  0
 17 18  1  0
 17 19  1  0
 19 20  2  0
 20 21  1  0
 21 22  2  0
 22 23  1  0
 23 24  2  0
 24 25  1  0
 25 26  1  0
 25 27  2  0
 27 28  1  0
 27 29  1  0
 29 30  1  0
 29 31  2  0
  9 32  1  0
 32 33  1  0
 32 34  1  0
 34 35  1  0
 34 36  1  0
 36 37  1  0
  4 38  1  0
 38 39  1  0
 38 40  1  0
 40 41  1  0
 40 42  1  0
 42 43  1  0
 42  2  1  0
 36  7  1  0
 22 11  1  0
 31 23  1  0
 20 13  1  0
  1 44  1  0
  1 45  1  0
  1 46  1  0
  2 47  1  6
  4 48  1  1
  6 49  1  0
  6 50  1  0
  7 51  1  6
  9 52  1  6
 12 53  1  0
 15 54  1  0
 16 55  1  0
 18 56  1  0
 19 57  1  0
 24 58  1  0
 26 59  1  0
 28 60  1  0
 30 61  1  0
 31 62  1  0
 32 63  1  1
 33 64  1  0
 34 65  1  6
 35 66  1  0
 36 67  1  1
 37 68  1  0
 38 69  1  6
 39 70  1  0
 40 71  1  6
 41 72  1  0
 42 73  1  1
 43 74  1  0
M  CHG  1  21   1
M  END
>  <LIG_ID>  (41) 
40

>  <_smiles>  (41) 
C[C@@H]1O[C@@H](OC[C@H]2O[C@@H](OC3=CC4=C(O)C=C(O)C=C4[O+]=C3C3=CC(O)=C(O)C(O)=C3)[C@H](O)[C@@H](O)[C@@H]2O)[C@H](O)[C@H](O)[C@H]1O

>  <_name>  (41) 
Delphinidin 3-O-rutinoside

>  <_molecular_weight>  (41) 
611.525

>  <_formula>  (41) 
C27H31O16

>  <_logP>  (41) 
-1.0606000000000002

>  <_molecular_wt_calculated>  (41) 
611.5290000000016

>  <_havy_atom_count>  (41) 
43

>  <_hydrogen_acceptors>  (41) 
15

>  <_hydrogen_donors>  (41) 
11

>  <_rotatable_bonds>  (41) 
18

>  <_amide_bonds>  (41) 
0

>  <_ring_count>  (41) 
5

$$$$
Cyanidin 3-O-sambubioside
     RDKit          3D

 71 74  0  0  0  0  0  0  0  0999 V2000
    0.0000    0.0000    0.0000 Cl  0  0  0  0  0 15  0  0  0  0  0  0
    1.6318    5.6248    2.0455 O   0  0  0  0  0  0  0  0  0  0  0  0
    0.6625    4.8579    1.3821 C   0  0  0  0  0  0  0  0  0  0  0  0
    1.2011    3.4578    1.0530 C   0  0  1  0  0  0  0  0  0  0  0  0
    0.1271    2.6850    0.5351 O   0  0  0  0  0  0  0  0  0  0  0  0
    0.6050    1.4370    0.0717 C   0  0  1  0  0  0  0  0  0  0  0  0
   -0.4951    0.5567   -0.1435 O   0  0  0  0  0  0  0  0  0  0  0  0
   -1.3433    0.0478    0.8534 C   0  0  0  0  0  0  0  0  0  0  0  0
   -1.1981    0.3920    2.2073 C   0  0  0  0  0  0  0  0  0  0  0  0
   -2.0448   -0.1732    3.1747 C   0  0  0  0  0  0  0  0  0  0  0  0
   -1.9580    0.1283    4.5595 C   0  0  0  0  0  0  0  0  0  0  0  0
   -1.0323    1.0314    5.0909 O   0  0  0  0  0  0  0  0  0  0  0  0
   -2.8347   -0.4960    5.4555 C   0  0  0  0  0  0  0  0  0  0  0  0
   -3.7950   -1.4077    5.0032 C   0  0  0  0  0  0  0  0  0  0  0  0
   -4.6648   -2.0254    5.8993 O   0  0  0  0  0  0  0  0  0  0  0  0
   -3.8859   -1.7027    3.6429 C   0  0  0  0  0  0  0  0  0  0  0  0
   -3.0218   -1.0943    2.7288 C   0  0  0  0  0  0  0  0  0  0  0  0
   -3.1313   -1.3934    1.4396 O   0  0  0  0  0  3  0  0  0  0  0  0
   -2.3567   -0.8627    0.4981 C   0  0  0  0  0  0  0  0  0  0  0  0
   -2.5716   -1.2839   -0.9053 C   0  0  0  0  0  0  0  0  0  0  0  0
   -2.8231   -2.6360   -1.1888 C   0  0  0  0  0  0  0  0  0  0  0  0
   -3.0056   -3.0668   -2.5077 C   0  0  0  0  0  0  0  0  0  0  0  0
   -3.2328   -4.4206   -2.7526 O   0  0  0  0  0  0  0  0  0  0  0  0
   -2.9559   -2.1371   -3.5598 C   0  0  0  0  0  0  0  0  0  0  0  0
   -3.1325   -2.5603   -4.8762 O   0  0  0  0  0  0  0  0  0  0  0  0
   -2.7321   -0.7830   -3.2794 C   0  0  0  0  0  0  0  0  0  0  0  0
   -2.5492   -0.3566   -1.9619 C   0  0  0  0  0  0  0  0  0  0  0  0
    1.3580    1.6285   -1.2630 C   0  0  2  0  0  0  0  0  0  0  0  0
    2.3678    0.6344   -1.3606 O   0  0  0  0  0  0  0  0  0  0  0  0
    2.1287   -0.2623   -2.4319 C   0  0  2  0  0  0  0  0  0  0  0  0
    0.9084   -0.9765   -2.2251 O   0  0  0  0  0  0  0  0  0  0  0  0
    1.0491   -2.2259   -1.5586 C   0  0  0  0  0  0  0  0  0  0  0  0
    2.2379   -2.2915   -0.5887 C   0  0  1  0  0  0  0  0  0  0  0  0
    2.2447   -3.5398    0.0531 O   0  0  0  0  0  0  0  0  0  0  0  0
    3.5611   -2.0744   -1.3545 C   0  0  2  0  0  0  0  0  0  0  0  0
    4.4957   -1.4873   -0.4853 O   0  0  0  0  0  0  0  0  0  0  0  0
    3.3584   -1.1776   -2.6049 C   0  0  1  0  0  0  0  0  0  0  0  0
    3.1761   -1.9721   -3.7497 O   0  0  0  0  0  0  0  0  0  0  0  0
    2.0184    3.0299   -1.3338 C   0  0  1  0  0  0  0  0  0  0  0  0
    1.1297    3.9539   -1.9115 O   0  0  0  0  0  0  0  0  0  0  0  0
    2.4159    3.5330    0.0657 C   0  0  2  0  0  0  0  0  0  0  0  0
    3.4753    2.7459    0.5481 O   0  0  0  0  0  0  0  0  0  0  0  0
    1.6726    5.2871    2.9782 H   0  0  0  0  0  0  0  0  0  0  0  0
    0.3722    5.3778    0.4443 H   0  0  0  0  0  0  0  0  0  0  0  0
   -0.2516    4.7722    2.0135 H   0  0  0  0  0  0  0  0  0  0  0  0
    1.5274    3.0068    2.0191 H   0  0  0  0  0  0  0  0  0  0  0  0
    1.2846    0.9627    0.8209 H   0  0  0  0  0  0  0  0  0  0  0  0
   -0.4220    1.0815    2.4878 H   0  0  0  0  0  0  0  0  0  0  0  0
   -0.3648    1.5556    4.5443 H   0  0  0  0  0  0  0  0  0  0  0  0
   -2.7683   -0.2677    6.5121 H   0  0  0  0  0  0  0  0  0  0  0  0
   -4.6258   -1.8334    6.8935 H   0  0  0  0  0  0  0  0  0  0  0  0
   -4.6306   -2.4078    3.2945 H   0  0  0  0  0  0  0  0  0  0  0  0
   -2.8538   -3.3636   -0.3866 H   0  0  0  0  0  0  0  0  0  0  0  0
   -3.3696   -4.7826   -3.6887 H   0  0  0  0  0  0  0  0  0  0  0  0
   -3.1013   -1.9087   -5.6517 H   0  0  0  0  0  0  0  0  0  0  0  0
   -2.7047   -0.0578   -4.0827 H   0  0  0  0  0  0  0  0  0  0  0  0
   -2.4060    0.6991   -1.7705 H   0  0  0  0  0  0  0  0  0  0  0  0
    0.6078    1.5766   -2.0915 H   0  0  0  0  0  0  0  0  0  0  0  0
    2.0344    0.3155   -3.3806 H   0  0  0  0  0  0  0  0  0  0  0  0
    0.1194   -2.4158   -0.9838 H   0  0  0  0  0  0  0  0  0  0  0  0
    1.1311   -3.0358   -2.3159 H   0  0  0  0  0  0  0  0  0  0  0  0
    2.0953   -1.4873    0.1714 H   0  0  0  0  0  0  0  0  0  0  0  0
    2.8594   -3.4575    0.8285 H   0  0  0  0  0  0  0  0  0  0  0  0
    3.9450   -3.0701   -1.6833 H   0  0  0  0  0  0  0  0  0  0  0  0
    5.3931   -1.6383   -0.8828 H   0  0  0  0  0  0  0  0  0  0  0  0
    4.2528   -0.5270   -2.7550 H   0  0  0  0  0  0  0  0  0  0  0  0
    4.0716   -2.3160   -4.0062 H   0  0  0  0  0  0  0  0  0  0  0  0
    2.9407    2.9758   -1.9606 H   0  0  0  0  0  0  0  0  0  0  0  0
    1.1446    3.7950   -2.8916 H   0  0  0  0  0  0  0  0  0  0  0  0
    2.7786    4.5824   -0.0474 H   0  0  0  0  0  0  0  0  0  0  0  0
    3.8793    3.2442    1.3060 H   0  0  0  0  0  0  0  0  0  0  0  0
  2  3  1  0
  3  4  1  0
  4  5  1  0
  5  6  1  0
  6  7  1  0
  7  8  1  0
  8  9  2  0
  9 10  1  0
 10 11  2  0
 11 12  1  0
 11 13  1  0
 13 14  2  0
 14 15  1  0
 14 16  1  0
 16 17  2  0
 17 18  1  0
 18 19  2  0
 19 20  1  0
 20 21  2  0
 21 22  1  0
 22 23  1  0
 22 24  2  0
 24 25  1  0
 24 26  1  0
 26 27  2  0
  6 28  1  0
 28 29  1  0
 29 30  1  0
 30 31  1  0
 31 32  1  0
 32 33  1  0
 33 34  1  0
 33 35  1  0
 35 36  1  0
 35 37  1  0
 37 38  1  0
 28 39  1  0
 39 40  1  0
 39 41  1  0
 41 42  1  0
 41  4  1  0
 19  8  1  0
 27 20  1  0
 37 30  1  0
 17 10  1  0
  2 43  1  0
  3 44  1  0
  3 45  1  0
  4 46  1  1
  6 47  1  1
  9 48  1  0
 12 49  1  0
 13 50  1  0
 15 51  1  0
 16 52  1  0
 21 53  1  0
 23 54  1  0
 25 55  1  0
 26 56  1  0
 27 57  1  0
 28 58  1  6
 30 59  1  6
 32 60  1  0
 32 61  1  0
 33 62  1  1
 34 63  1  0
 35 64  1  6
 36 65  1  0
 37 66  1  6
 38 67  1  0
 39 68  1  6
 40 69  1  0
 41 70  1  6
 42 71  1  0
M  CHG  2   1  -1  18   1
M  END
>  <LIG_ID>  (42) 
41

>  <_smiles>  (42) 
[Cl-].OC[C@H]1O[C@@H](OC2=CC3=C(O)C=C(O)C=C3[O+]=C2C2=CC(O)=C(O)C=C2)[C@H](O[C@@H]2OC[C@@H](O)[C@H](O)[C@H]2O)[C@@H](O)[C@@H]1O

>  <_name>  (42) 
Cyanidin 3-O-sambubioside

>  <_molecular_weight>  (42) 
616.952

>  <_formula>  (42) 
C26H29ClO15

>  <_logP>  (42) 
-4.150699999999996

>  <_molecular_wt_calculated>  (42) 
616.9560000000015

>  <_havy_atom_count>  (42) 
42

>  <_hydrogen_acceptors>  (42) 
14

>  <_hydrogen_donors>  (42) 
10

>  <_rotatable_bonds>  (42) 
16

>  <_amide_bonds>  (42) 
0

>  <_ring_count>  (42) 
5

$$$$
Pelargonidin 3-O-(6''-malonyl-glucoside)
     RDKit          3D

 60 63  0  0  0  0  0  0  0  0999 V2000
   -3.3363   -1.4646   -3.3669 O   0  0  0  0  0  0  0  0  0  0  0  0
   -2.7968   -1.0806   -2.1277 C   0  0  2  0  0  0  0  0  0  0  0  0
   -1.3222   -0.6510   -2.3132 C   0  0  1  0  0  0  0  0  0  0  0  0
   -1.2045    0.5612   -3.2440 C   0  0  0  0  0  0  0  0  0  0  0  0
   -1.8711    1.6856   -2.6769 O   0  0  0  0  0  0  0  0  0  0  0  0
   -1.9374    2.9260   -3.3164 C   0  0  0  0  0  0  0  0  0  0  0  0
   -1.4038    3.0978   -4.4465 O   0  0  0  0  0  0  0  0  0  0  0  0
   -2.6890    4.0430   -2.6707 C   0  0  0  0  0  0  0  0  0  0  0  0
   -4.1520    3.8826   -2.9256 C   0  0  0  0  0  0  0  0  0  0  0  0
   -4.7230    4.4449   -4.0629 O   0  0  0  0  0  0  0  0  0  0  0  0
   -4.8606    3.2049   -2.1339 O   0  0  0  0  0  0  0  0  0  0  0  0
   -0.7468   -0.3132   -1.0631 O   0  0  0  0  0  0  0  0  0  0  0  0
   -0.6725   -1.4552   -0.2281 C   0  0  1  0  0  0  0  0  0  0  0  0
    0.0189   -1.1091    0.9703 O   0  0  0  0  0  0  0  0  0  0  0  0
    1.3701   -0.7298    1.0491 C   0  0  0  0  0  0  0  0  0  0  0  0
    2.1903   -0.6428   -0.0885 C   0  0  0  0  0  0  0  0  0  0  0  0
    3.5187   -0.2027    0.0293 C   0  0  0  0  0  0  0  0  0  0  0  0
    4.4007   -0.0777   -1.0765 C   0  0  0  0  0  0  0  0  0  0  0  0
    4.0333   -0.3882   -2.3893 O   0  0  0  0  0  0  0  0  0  0  0  0
    5.7080    0.3780   -0.8654 C   0  0  0  0  0  0  0  0  0  0  0  0
    6.1539    0.7117    0.4182 C   0  0  0  0  0  0  0  0  0  0  0  0
    7.4553    1.1652    0.6220 O   0  0  0  0  0  0  0  0  0  0  0  0
    5.2899    0.5902    1.5065 C   0  0  0  0  0  0  0  0  0  0  0  0
    3.9811    0.1367    1.3225 C   0  0  0  0  0  0  0  0  0  0  0  0
    3.1817    0.0274    2.3771 O   0  0  0  0  0  3  0  0  0  0  0  0
    1.9237   -0.3967    2.3003 C   0  0  0  0  0  0  0  0  0  0  0  0
    1.1386   -0.4841    3.5528 C   0  0  0  0  0  0  0  0  0  0  0  0
    0.3103   -1.5892    3.8234 C   0  0  0  0  0  0  0  0  0  0  0  0
   -0.4089   -1.6569    5.0203 C   0  0  0  0  0  0  0  0  0  0  0  0
   -0.2984   -0.6305    5.9673 C   0  0  0  0  0  0  0  0  0  0  0  0
   -1.0114   -0.6868    7.1627 O   0  0  0  0  0  0  0  0  0  0  0  0
    0.5395    0.4594    5.7135 C   0  0  0  0  0  0  0  0  0  0  0  0
    1.2600    0.5300    4.5173 C   0  0  0  0  0  0  0  0  0  0  0  0
   -2.0853   -1.9325    0.1416 C   0  0  2  0  0  0  0  0  0  0  0  0
   -1.9883   -3.0750    0.9531 O   0  0  0  0  0  0  0  0  0  0  0  0
   -2.8740   -2.2596   -1.1407 C   0  0  1  0  0  0  0  0  0  0  0  0
   -4.2196   -2.5110   -0.8254 O   0  0  0  0  0  0  0  0  0  0  0  0
   -4.3235   -1.4004   -3.2838 H   0  0  0  0  0  0  0  0  0  0  0  0
   -3.3710   -0.2194   -1.7089 H   0  0  0  0  0  0  0  0  0  0  0  0
   -0.7513   -1.4810   -2.7932 H   0  0  0  0  0  0  0  0  0  0  0  0
   -1.6429    0.3243   -4.2380 H   0  0  0  0  0  0  0  0  0  0  0  0
   -0.1289    0.8048   -3.3873 H   0  0  0  0  0  0  0  0  0  0  0  0
   -2.3450    5.0194   -3.0750 H   0  0  0  0  0  0  0  0  0  0  0  0
   -2.4930    4.0364   -1.5769 H   0  0  0  0  0  0  0  0  0  0  0  0
   -5.7103    4.3311   -4.2589 H   0  0  0  0  0  0  0  0  0  0  0  0
   -0.1193   -2.2869   -0.7257 H   0  0  0  0  0  0  0  0  0  0  0  0
    1.7796   -0.9066   -1.0468 H   0  0  0  0  0  0  0  0  0  0  0  0
    3.1228   -0.7258   -2.6649 H   0  0  0  0  0  0  0  0  0  0  0  0
    6.3813    0.4736   -1.7083 H   0  0  0  0  0  0  0  0  0  0  0  0
    8.1082    1.2649   -0.1466 H   0  0  0  0  0  0  0  0  0  0  0  0
    5.6370    0.8484    2.4996 H   0  0  0  0  0  0  0  0  0  0  0  0
    0.2358   -2.4111    3.1230 H   0  0  0  0  0  0  0  0  0  0  0  0
   -1.0449   -2.5112    5.2142 H   0  0  0  0  0  0  0  0  0  0  0  0
   -1.6257   -1.4638    7.3766 H   0  0  0  0  0  0  0  0  0  0  0  0
    0.6332    1.2525    6.4444 H   0  0  0  0  0  0  0  0  0  0  0  0
    1.9028    1.3834    4.3384 H   0  0  0  0  0  0  0  0  0  0  0  0
   -2.5988   -1.1084    0.6933 H   0  0  0  0  0  0  0  0  0  0  0  0
   -2.8194   -3.1163    1.4944 H   0  0  0  0  0  0  0  0  0  0  0  0
   -2.4213   -3.1563   -1.6298 H   0  0  0  0  0  0  0  0  0  0  0  0
   -4.2771   -3.4592   -0.5371 H   0  0  0  0  0  0  0  0  0  0  0  0
  1  2  1  0
  2  3  1  0
  3  4  1  0
  4  5  1  0
  5  6  1  0
  6  7  2  0
  6  8  1  0
  8  9  1  0
  9 10  1  0
  9 11  2  0
  3 12  1  0
 12 13  1  0
 13 14  1  0
 14 15  1  0
 15 16  2  0
 16 17  1  0
 17 18  2  0
 18 19  1  0
 18 20  1  0
 20 21  2  0
 21 22  1  0
 21 23  1  0
 23 24  2  0
 24 25  1  0
 25 26  2  0
 26 27  1  0
 27 28  2  0
 28 29  1  0
 29 30  2  0
 30 31  1  0
 30 32  1  0
 32 33  2  0
 13 34  1  0
 34 35  1  0
 34 36  1  0
 36 37  1  0
 36  2  1  0
 26 15  1  0
 33 27  1  0
 24 17  1  0
  1 38  1  0
  2 39  1  1
  3 40  1  6
  4 41  1  0
  4 42  1  0
  8 43  1  0
  8 44  1  0
 10 45  1  0
 13 46  1  6
 16 47  1  0
 19 48  1  0
 20 49  1  0
 22 50  1  0
 23 51  1  0
 28 52  1  0
 29 53  1  0
 31 54  1  0
 32 55  1  0
 33 56  1  0
 34 57  1  1
 35 58  1  0
 36 59  1  6
 37 60  1  0
M  CHG  1  25   1
M  END
>  <LIG_ID>  (43) 
42

>  <_smiles>  (43) 
O[C@@H]1[C@@H](COC(=O)CC(O)=O)O[C@@H](OC2=CC3=C(O)C=C(O)C=C3[O+]=C2C2=CC=C(O)C=C2)[C@H](O)[C@H]1O

>  <_name>  (43) 
Pelargonidin 3-O-(6''-malonyl-glucoside)

>  <_molecular_weight>  (43) 
519.432

>  <_formula>  (43) 
C24H23O13

>  <_logP>  (43) 
0.7019999999999988

>  <_molecular_wt_calculated>  (43) 
519.4350000000004

>  <_havy_atom_count>  (43) 
37

>  <_hydrogen_acceptors>  (43) 
12

>  <_hydrogen_donors>  (43) 
7

>  <_rotatable_bonds>  (43) 
13

>  <_amide_bonds>  (43) 
0

>  <_ring_count>  (43) 
4

$$$$
Peonidin 3-O-(6''-p-coumaroyl-glucoside)
     RDKit          3D

 73 77  0  0  0  0  0  0  0  0999 V2000
    1.3634    0.0627   -0.3564 C   0  0  1  0  0  0  0  0  0  0  0  0
    1.9589   -0.7684    0.7887 C   0  0  0  0  0  0  0  0  0  0  0  0
    3.3626   -0.9162    0.5978 O   0  0  0  0  0  0  0  0  0  0  0  0
    4.1775   -1.6298    1.4825 C   0  0  0  0  0  0  0  0  0  0  0  0
    3.6800   -2.1935    2.4947 O   0  0  0  0  0  0  0  0  0  0  0  0
    5.6257   -1.7298    1.2444 C   0  0  0  0  0  0  0  0  0  0  0  0
    6.2081   -1.1582    0.1813 C   0  0  0  0  0  0  0  0  0  0  0  0
    7.6615   -1.2389   -0.1068 C   0  0  0  0  0  0  0  0  0  0  0  0
    8.6189   -1.5215    0.8892 C   0  0  0  0  0  0  0  0  0  0  0  0
    9.9790   -1.5749    0.5679 C   0  0  0  0  0  0  0  0  0  0  0  0
   10.4035   -1.3387   -0.7453 C   0  0  0  0  0  0  0  0  0  0  0  0
   11.7559   -1.3908   -1.0755 O   0  0  0  0  0  0  0  0  0  0  0  0
    9.4621   -1.0438   -1.7347 C   0  0  0  0  0  0  0  0  0  0  0  0
    8.1016   -0.9886   -1.4178 C   0  0  0  0  0  0  0  0  0  0  0  0
   -0.0598    0.0397   -0.3002 O   0  0  0  0  0  0  0  0  0  0  0  0
   -0.5956    1.0919    0.4862 C   0  0  0  0  0  0  0  0  0  0  0  0
   -1.9931    0.8757    0.7130 O   0  0  0  0  0  0  0  0  0  0  0  0
   -2.9724    0.5205   -0.2375 C   0  0  0  0  0  0  0  0  0  0  0  0
   -4.2880    0.2673    0.1979 C   0  0  0  0  0  0  0  0  0  0  0  0
   -5.2102   -0.1373   -0.6703 O   0  0  0  0  0  3  0  0  0  0  0  0
   -4.9728   -0.2965   -1.9665 C   0  0  0  0  0  0  0  0  0  0  0  0
   -6.0103   -0.7233   -2.7994 C   0  0  0  0  0  0  0  0  0  0  0  0
   -5.7912   -0.8907   -4.1697 C   0  0  0  0  0  0  0  0  0  0  0  0
   -6.8210   -1.3153   -5.0064 O   0  0  0  0  0  0  0  0  0  0  0  0
   -4.5296   -0.6300   -4.7083 C   0  0  0  0  0  0  0  0  0  0  0  0
   -3.4730   -0.2031   -3.8944 C   0  0  0  0  0  0  0  0  0  0  0  0
   -2.2420    0.0346   -4.5136 O   0  0  0  0  0  0  0  0  0  0  0  0
   -3.6905   -0.0335   -2.5012 C   0  0  0  0  0  0  0  0  0  0  0  0
   -2.6893    0.3816   -1.6083 C   0  0  0  0  0  0  0  0  0  0  0  0
   -4.6867    0.4203    1.6155 C   0  0  0  0  0  0  0  0  0  0  0  0
   -5.5188   -0.5436    2.2079 C   0  0  0  0  0  0  0  0  0  0  0  0
   -5.9303   -0.4110    3.5491 C   0  0  0  0  0  0  0  0  0  0  0  0
   -6.7504   -1.3613    4.1776 O   0  0  0  0  0  0  0  0  0  0  0  0
   -7.2482   -2.5382    3.5493 C   0  0  0  0  0  0  0  0  0  0  0  0
   -5.5130    0.7044    4.2886 C   0  0  0  0  0  0  0  0  0  0  0  0
   -5.9152    0.8406    5.6163 O   0  0  0  0  0  0  0  0  0  0  0  0
   -4.7006    1.6780    3.6941 C   0  0  0  0  0  0  0  0  0  0  0  0
   -4.2955    1.5420    2.3653 C   0  0  0  0  0  0  0  0  0  0  0  0
   -0.3171    2.4963   -0.1220 C   0  0  2  0  0  0  0  0  0  0  0  0
   -1.4169    2.9589   -0.8628 O   0  0  0  0  0  0  0  0  0  0  0  0
    0.9416    2.4769   -1.0118 C   0  0  1  0  0  0  0  0  0  0  0  0
    1.4832    3.7713   -1.0792 O   0  0  0  0  0  0  0  0  0  0  0  0
    1.9721    1.4969   -0.4239 C   0  0  2  0  0  0  0  0  0  0  0  0
    3.1669    1.5028   -1.1673 O   0  0  0  0  0  0  0  0  0  0  0  0
    1.6327   -0.4626   -1.2991 H   0  0  0  0  0  0  0  0  0  0  0  0
    1.4818   -1.7727    0.7969 H   0  0  0  0  0  0  0  0  0  0  0  0
    1.7673   -0.2772    1.7667 H   0  0  0  0  0  0  0  0  0  0  0  0
    6.2070   -2.3061    1.9509 H   0  0  0  0  0  0  0  0  0  0  0  0
    5.5879   -0.6368   -0.5390 H   0  0  0  0  0  0  0  0  0  0  0  0
    8.3316   -1.6783    1.9192 H   0  0  0  0  0  0  0  0  0  0  0  0
   10.7029   -1.7928    1.3429 H   0  0  0  0  0  0  0  0  0  0  0  0
   12.4629   -1.6009   -0.3806 H   0  0  0  0  0  0  0  0  0  0  0  0
    9.7849   -0.8557   -2.7508 H   0  0  0  0  0  0  0  0  0  0  0  0
    7.3896   -0.7578   -2.2010 H   0  0  0  0  0  0  0  0  0  0  0  0
   -0.1226    1.0657    1.4935 H   0  0  0  0  0  0  0  0  0  0  0  0
   -6.9888   -0.9228   -2.3799 H   0  0  0  0  0  0  0  0  0  0  0  0
   -7.7479   -1.5127   -4.6477 H   0  0  0  0  0  0  0  0  0  0  0  0
   -4.3672   -0.7611   -5.7711 H   0  0  0  0  0  0  0  0  0  0  0  0
   -1.4096    0.3459   -4.0348 H   0  0  0  0  0  0  0  0  0  0  0  0
   -1.7009    0.6034   -1.9638 H   0  0  0  0  0  0  0  0  0  0  0  0
   -5.8311   -1.3988    1.6231 H   0  0  0  0  0  0  0  0  0  0  0  0
   -6.4049   -3.1830    3.2233 H   0  0  0  0  0  0  0  0  0  0  0  0
   -7.8822   -2.2673    2.6787 H   0  0  0  0  0  0  0  0  0  0  0  0
   -7.8665   -3.1032    4.2765 H   0  0  0  0  0  0  0  0  0  0  0  0
   -5.6320    1.6355    6.1775 H   0  0  0  0  0  0  0  0  0  0  0  0
   -4.3889    2.5466    4.2601 H   0  0  0  0  0  0  0  0  0  0  0  0
   -3.6960    2.3253    1.9187 H   0  0  0  0  0  0  0  0  0  0  0  0
   -0.1444    3.1913    0.7347 H   0  0  0  0  0  0  0  0  0  0  0  0
   -1.2947    3.9370   -0.9817 H   0  0  0  0  0  0  0  0  0  0  0  0
    0.6502    2.1298   -2.0329 H   0  0  0  0  0  0  0  0  0  0  0  0
    2.0311    3.8128   -1.9060 H   0  0  0  0  0  0  0  0  0  0  0  0
    2.2173    1.8437    0.6053 H   0  0  0  0  0  0  0  0  0  0  0  0
    2.9397    1.2776   -2.1074 H   0  0  0  0  0  0  0  0  0  0  0  0
  1  2  1  0
  2  3  1  0
  3  4  1  0
  4  5  2  0
  4  6  1  0
  6  7  2  0
  7  8  1  0
  8  9  2  0
  9 10  1  0
 10 11  2  0
 11 12  1  0
 11 13  1  0
 13 14  2  0
  1 15  1  0
 15 16  1  0
 16 17  1  0
 17 18  1  0
 18 19  1  0
 19 20  2  0
 20 21  1  0
 21 22  2  0
 22 23  1  0
 23 24  1  0
 23 25  2  0
 25 26  1  0
 26 27  1  0
 26 28  2  0
 28 29  1  0
 19 30  1  0
 30 31  2  0
 31 32  1  0
 32 33  1  0
 33 34  1  0
 32 35  2  0
 35 36  1  0
 35 37  1  0
 37 38  2  0
 16 39  1  0
 39 40  1  0
 39 41  1  0
 41 42  1  0
 41 43  1  0
 43 44  1  0
 43  1  1  0
 14  8  1  0
 29 18  2  0
 38 30  1  0
 28 21  1  0
  1 45  1  6
  2 46  1  0
  2 47  1  0
  6 48  1  0
  7 49  1  0
  9 50  1  0
 10 51  1  0
 12 52  1  0
 13 53  1  0
 14 54  1  0
 16 55  1  0
 22 56  1  0
 24 57  1  0
 25 58  1  0
 27 59  1  0
 29 60  1  0
 31 61  1  0
 34 62  1  0
 34 63  1  0
 34 64  1  0
 36 65  1  0
 37 66  1  0
 38 67  1  0
 39 68  1  1
 40 69  1  0
 41 70  1  6
 42 71  1  0
 43 72  1  1
 44 73  1  0
M  CHG  1  20   1
M  END
>  <LIG_ID>  (44) 
43

>  <_smiles>  (44) 
[H][C@]1(COC(=O)\C=C\C2=CC=C(O)C=C2)OC(OC2=C([O+]=C3C=C(O)C=C(O)C3=C2)C2=CC(OC)=C(O)C=C2)[C@]([H])(O)[C@@]([H])(O)[C@]1([H])O

>  <_name>  (44) 
Peonidin 3-O-(6''-p-coumaroyl-glucoside)

>  <_molecular_weight>  (44) 
609.554

>  <_formula>  (44) 
C31H29O13

>  <_logP>  (44) 
2.6549000000000027

>  <_molecular_wt_calculated>  (44) 
609.5600000000015

>  <_havy_atom_count>  (44) 
44

>  <_hydrogen_acceptors>  (44) 
12

>  <_hydrogen_donors>  (44) 
7

>  <_rotatable_bonds>  (44) 
16

>  <_amide_bonds>  (44) 
0

>  <_ring_count>  (44) 
5

$$$$
Cyanidin 3-O-xyloside
     RDKit          3D

 49 52  0  0  0  0  0  0  0  0999 V2000
    3.3291   -0.4835    1.2110 C   0  0  1  0  0  0  0  0  0  0  0  0
    2.8267    0.4598    2.3155 C   0  0  0  0  0  0  0  0  0  0  0  0
    1.5904    1.0192    1.9644 O   0  0  0  0  0  0  0  0  0  0  0  0
    2.3165   -1.4041    0.8570 O   0  0  0  0  0  0  0  0  0  0  0  0
    2.0965   -1.3026   -0.5334 C   0  0  1  0  0  0  0  0  0  0  0  0
    0.9440   -0.4954   -0.7717 O   0  0  0  0  0  0  0  0  0  0  0  0
   -0.3566   -0.7765   -0.3234 C   0  0  0  0  0  0  0  0  0  0  0  0
   -0.6996   -2.0119    0.2495 C   0  0  0  0  0  0  0  0  0  0  0  0
   -2.0025   -2.2320    0.7259 C   0  0  0  0  0  0  0  0  0  0  0  0
   -2.9299   -1.1702    0.6043 C   0  0  0  0  0  0  0  0  0  0  0  0
   -4.2396   -1.3218    1.0669 C   0  0  0  0  0  0  0  0  0  0  0  0
   -4.6460   -2.5241    1.6528 C   0  0  0  0  0  0  0  0  0  0  0  0
   -5.9503   -2.6823    2.1162 O   0  0  0  0  0  0  0  0  0  0  0  0
   -3.7389   -3.5785    1.7760 C   0  0  0  0  0  0  0  0  0  0  0  0
   -2.4207   -3.4516    1.3208 C   0  0  0  0  0  0  0  0  0  0  0  0
   -1.5771   -4.5548    1.4816 O   0  0  0  0  0  0  0  0  0  0  0  0
   -2.5704   -0.0180    0.0504 O   0  0  0  0  0  3  0  0  0  0  0  0
   -1.3494    0.2164   -0.4208 C   0  0  0  0  0  0  0  0  0  0  0  0
   -1.0678    1.5474   -1.0054 C   0  0  0  0  0  0  0  0  0  0  0  0
   -0.3283    1.6854   -2.1942 C   0  0  0  0  0  0  0  0  0  0  0  0
   -0.0699    2.9562   -2.7275 C   0  0  0  0  0  0  0  0  0  0  0  0
    0.6739    3.0917   -3.8983 O   0  0  0  0  0  0  0  0  0  0  0  0
   -0.5640    4.0974   -2.0836 C   0  0  0  0  0  0  0  0  0  0  0  0
   -0.3026    5.3590   -2.6148 O   0  0  0  0  0  0  0  0  0  0  0  0
   -1.3209    3.9634   -0.9124 C   0  0  0  0  0  0  0  0  0  0  0  0
   -1.5765    2.6968   -0.3804 C   0  0  0  0  0  0  0  0  0  0  0  0
    3.3136   -0.6450   -1.1738 C   0  0  2  0  0  0  0  0  0  0  0  0
    4.2545   -1.6073   -1.5903 O   0  0  0  0  0  0  0  0  0  0  0  0
    3.8629    0.2151   -0.0534 C   0  0  1  0  0  0  0  0  0  0  0  0
    3.4446    1.5575   -0.1688 O   0  0  0  0  0  0  0  0  0  0  0  0
    4.1693   -1.0708    1.6445 H   0  0  0  0  0  0  0  0  0  0  0  0
    2.7081   -0.1236    3.2559 H   0  0  0  0  0  0  0  0  0  0  0  0
    3.5762    1.2627    2.4967 H   0  0  0  0  0  0  0  0  0  0  0  0
    1.3384    1.6224    2.7109 H   0  0  0  0  0  0  0  0  0  0  0  0
    1.9384   -2.3129   -0.9700 H   0  0  0  0  0  0  0  0  0  0  0  0
    0.0532   -2.7769    0.3205 H   0  0  0  0  0  0  0  0  0  0  0  0
   -4.9419   -0.5030    0.9699 H   0  0  0  0  0  0  0  0  0  0  0  0
   -6.6331   -1.9372    2.0419 H   0  0  0  0  0  0  0  0  0  0  0  0
   -4.0610   -4.5073    2.2306 H   0  0  0  0  0  0  0  0  0  0  0  0
   -0.6116   -4.5847    1.1887 H   0  0  0  0  0  0  0  0  0  0  0  0
    0.0323    0.8104   -2.7199 H   0  0  0  0  0  0  0  0  0  0  0  0
    1.0465    2.2854   -4.3861 H   0  0  0  0  0  0  0  0  0  0  0  0
   -0.6477    6.2025   -2.1717 H   0  0  0  0  0  0  0  0  0  0  0  0
   -1.7104    4.8409   -0.4122 H   0  0  0  0  0  0  0  0  0  0  0  0
   -2.1583    2.6146    0.5296 H   0  0  0  0  0  0  0  0  0  0  0  0
    3.0251   -0.0341   -2.0581 H   0  0  0  0  0  0  0  0  0  0  0  0
    4.4905   -2.1713   -0.8070 H   0  0  0  0  0  0  0  0  0  0  0  0
    4.9756    0.2037   -0.0591 H   0  0  0  0  0  0  0  0  0  0  0  0
    2.4682    1.5734   -0.3453 H   0  0  0  0  0  0  0  0  0  0  0  0
  1  2  1  0
  2  3  1  0
  1  4  1  0
  4  5  1  0
  5  6  1  0
  6  7  1  0
  7  8  2  0
  8  9  1  0
  9 10  2  0
 10 11  1  0
 11 12  2  0
 12 13  1  0
 12 14  1  0
 14 15  2  0
 15 16  1  0
 10 17  1  0
 17 18  2  0
 18 19  1  0
 19 20  2  0
 20 21  1  0
 21 22  1  0
 21 23  2  0
 23 24  1  0
 23 25  1  0
 25 26  2  0
  5 27  1  0
 27 28  1  0
 27 29  1  0
 29 30  1  0
 29  1  1  0
 18  7  1  0
 26 19  1  0
 15  9  1  0
  1 31  1  1
  2 32  1  0
  2 33  1  0
  3 34  1  0
  5 35  1  6
  8 36  1  0
 11 37  1  0
 13 38  1  0
 14 39  1  0
 16 40  1  0
 20 41  1  0
 22 42  1  0
 24 43  1  0
 25 44  1  0
 26 45  1  0
 27 46  1  6
 28 47  1  0
 29 48  1  1
 30 49  1  0
M  CHG  1  17   1
M  END
>  <LIG_ID>  (45) 
44

>  <_smiles>  (45) 
[H][C@]1(CO)O[C@@]([H])(OC2=CC3=C(C=C(O)C=C3O)[O+]=C2C2=CC(O)=C(O)C=C2)[C@]([H])(O)[C@@]1([H])O

>  <_name>  (45) 
Cyanidin 3-O-xyloside

>  <_molecular_weight>  (45) 
419.359

>  <_formula>  (45) 
C20H19O10

>  <_logP>  (45) 
1.0211000000000001

>  <_molecular_wt_calculated>  (45) 
419.36199999999985

>  <_havy_atom_count>  (45) 
30

>  <_hydrogen_acceptors>  (45) 
9

>  <_hydrogen_donors>  (45) 
7

>  <_rotatable_bonds>  (45) 
11

>  <_amide_bonds>  (45) 
0

>  <_ring_count>  (45) 
4

$$$$
Malvidin 3-O-galactoside
     RDKit          3D

 61 63  0  0  0  0  0  0  0  0999 V2000
    0.0000    0.0000    0.0000 Cl  0  0  0  0  0 15  0  0  0  0  0  0
   -1.9098   -1.4262   -4.0687 C   0  0  0  0  0  0  0  0  0  0  0  0
   -0.6057   -0.9872   -4.4354 O   0  0  0  0  0  0  0  0  0  0  0  0
    0.2223   -0.1888   -3.6297 C   0  0  0  0  0  0  0  0  0  0  0  0
   -0.2044    0.2993   -2.3813 C   0  0  0  0  0  0  0  0  0  0  0  0
    0.6558    1.0662   -1.5794 C   0  0  0  0  0  0  0  0  0  0  0  0
    1.9334    1.3882   -2.0574 C   0  0  0  0  0  0  0  0  0  0  0  0
    2.3701    0.9187   -3.3095 C   0  0  0  0  0  0  0  0  0  0  0  0
    3.6473    1.2135   -3.8129 O   0  0  0  0  0  0  0  0  0  0  0  0
    4.6207    2.0005   -3.1341 C   0  0  0  0  0  0  0  0  0  0  0  0
    1.5137    0.1277   -4.0881 C   0  0  0  0  0  0  0  0  0  0  0  0
    1.9650   -0.3380   -5.3241 O   0  0  0  0  0  0  0  0  0  0  0  0
    0.2231    1.5725   -0.2562 C   0  0  0  0  0  0  0  0  0  0  0  0
    0.5548    2.8176    0.0750 O   0  0  0  0  0  3  0  0  0  0  0  0
    0.1805    3.3953    1.2116 C   0  0  0  0  0  0  0  0  0  0  0  0
    0.5819    4.7081    1.4719 C   0  0  0  0  0  0  0  0  0  0  0  0
    0.1952    5.3429    2.6526 C   0  0  0  0  0  0  0  0  0  0  0  0
    0.6054    6.6522    2.8941 O   0  0  0  0  0  0  0  0  0  0  0  0
   -0.5999    4.6620    3.5816 C   0  0  0  0  0  0  0  0  0  0  0  0
   -1.0146    3.3456    3.3444 C   0  0  0  0  0  0  0  0  0  0  0  0
   -1.8069    2.7341    4.3203 O   0  0  0  0  0  0  0  0  0  0  0  0
   -0.6211    2.6965    2.1457 C   0  0  0  0  0  0  0  0  0  0  0  0
   -0.9769    1.3755    1.8315 C   0  0  0  0  0  0  0  0  0  0  0  0
   -0.5296    0.7909    0.6467 C   0  0  0  0  0  0  0  0  0  0  0  0
   -0.8419   -0.5507    0.3988 O   0  0  0  0  0  0  0  0  0  0  0  0
    0.1452   -1.5823    0.3264 C   0  0  2  0  0  0  0  0  0  0  0  0
   -0.3684   -2.6535   -0.4614 O   0  0  0  0  0  0  0  0  0  0  0  0
   -0.8654   -3.7617    0.2802 C   0  0  2  0  0  0  0  0  0  0  0  0
   -1.7939   -4.5906   -0.6198 C   0  0  0  0  0  0  0  0  0  0  0  0
   -2.8317   -3.7999   -1.1378 O   0  0  0  0  0  0  0  0  0  0  0  0
   -1.5577   -3.3540    1.6026 C   0  0  2  0  0  0  0  0  0  0  0  0
   -2.6263   -2.4800    1.3297 O   0  0  0  0  0  0  0  0  0  0  0  0
   -0.5256   -2.6839    2.5411 C   0  0  2  0  0  0  0  0  0  0  0  0
   -1.1719   -1.7692    3.3909 O   0  0  0  0  0  0  0  0  0  0  0  0
    0.6091   -1.9816    1.7514 C   0  0  1  0  0  0  0  0  0  0  0  0
    1.7175   -2.8420    1.6622 O   0  0  0  0  0  0  0  0  0  0  0  0
   -1.8616   -2.0251   -3.1350 H   0  0  0  0  0  0  0  0  0  0  0  0
   -2.3188   -2.0637   -4.8789 H   0  0  0  0  0  0  0  0  0  0  0  0
   -2.5820   -0.5533   -3.9300 H   0  0  0  0  0  0  0  0  0  0  0  0
   -1.2070    0.0932   -2.0337 H   0  0  0  0  0  0  0  0  0  0  0  0
    2.5880    1.9913   -1.4421 H   0  0  0  0  0  0  0  0  0  0  0  0
    5.5321    2.0706   -3.7624 H   0  0  0  0  0  0  0  0  0  0  0  0
    4.2296    3.0251   -2.9598 H   0  0  0  0  0  0  0  0  0  0  0  0
    4.8910    1.5240   -2.1681 H   0  0  0  0  0  0  0  0  0  0  0  0
    1.3908   -0.9125   -5.9292 H   0  0  0  0  0  0  0  0  0  0  0  0
    1.1952    5.2375    0.7530 H   0  0  0  0  0  0  0  0  0  0  0  0
    0.3420    7.1423    3.7410 H   0  0  0  0  0  0  0  0  0  0  0  0
   -0.8991    5.1581    4.4966 H   0  0  0  0  0  0  0  0  0  0  0  0
   -2.1688    1.7939    4.2544 H   0  0  0  0  0  0  0  0  0  0  0  0
   -1.5725    0.7692    2.4946 H   0  0  0  0  0  0  0  0  0  0  0  0
    1.0359   -1.1925   -0.2094 H   0  0  0  0  0  0  0  0  0  0  0  0
   -0.0091   -4.4282    0.5294 H   0  0  0  0  0  0  0  0  0  0  0  0
   -2.1894   -5.4721   -0.0620 H   0  0  0  0  0  0  0  0  0  0  0  0
   -1.2020   -4.9859   -1.4728 H   0  0  0  0  0  0  0  0  0  0  0  0
   -3.6436   -3.9959   -0.6017 H   0  0  0  0  0  0  0  0  0  0  0  0
   -1.9426   -4.2768    2.0999 H   0  0  0  0  0  0  0  0  0  0  0  0
   -3.2835   -2.5841    2.0665 H   0  0  0  0  0  0  0  0  0  0  0  0
   -0.0735   -3.4903    3.1674 H   0  0  0  0  0  0  0  0  0  0  0  0
   -0.5589   -1.5994    4.1536 H   0  0  0  0  0  0  0  0  0  0  0  0
    0.9178   -1.0609    2.3008 H   0  0  0  0  0  0  0  0  0  0  0  0
    2.5005   -2.2821    1.4182 H   0  0  0  0  0  0  0  0  0  0  0  0
  2  3  1  0
  3  4  1  0
  4  5  2  0
  5  6  1  0
  6  7  2  0
  7  8  1  0
  8  9  1  0
  9 10  1  0
  8 11  2  0
 11 12  1  0
  6 13  1  0
 13 14  2  0
 14 15  1  0
 15 16  2  0
 16 17  1  0
 17 18  1  0
 17 19  2  0
 19 20  1  0
 20 21  1  0
 20 22  2  0
 22 23  1  0
 23 24  2  0
 24 25  1  0
 25 26  1  0
 26 27  1  0
 27 28  1  0
 28 29  1  0
 29 30  1  0
 28 31  1  0
 31 32  1  0
 31 33  1  0
 33 34  1  0
 33 35  1  0
 35 36  1  0
 11  4  1  0
 24 13  1  0
 35 26  1  0
 22 15  1  0
  2 37  1  0
  2 38  1  0
  2 39  1  0
  5 40  1  0
  7 41  1  0
 10 42  1  0
 10 43  1  0
 10 44  1  0
 12 45  1  0
 16 46  1  0
 18 47  1  0
 19 48  1  0
 21 49  1  0
 23 50  1  0
 26 51  1  6
 28 52  1  1
 29 53  1  0
 29 54  1  0
 30 55  1  0
 31 56  1  1
 32 57  1  0
 33 58  1  1
 34 59  1  0
 35 60  1  1
 36 61  1  0
M  CHG  2   1  -1  14   1
M  END
>  <LIG_ID>  (46) 
45

>  <_smiles>  (46) 
[Cl-].COC1=CC(=CC(OC)=C1O)C1=[O+]C2=CC(O)=CC(O)=C2C=C1O[C@@H]1O[C@H](CO)[C@H](O)[C@H](O)[C@H]1O

>  <_name>  (46) 
Malvidin 3-O-galactoside

>  <_molecular_weight>  (46) 
528.89

>  <_formula>  (46) 
C23H25ClO12

>  <_logP>  (46) 
-2.3024

>  <_molecular_wt_calculated>  (46) 
528.8940000000009

>  <_havy_atom_count>  (46) 
36

>  <_hydrogen_acceptors>  (46) 
11

>  <_hydrogen_donors>  (46) 
7

>  <_rotatable_bonds>  (46) 
15

>  <_amide_bonds>  (46) 
0

>  <_ring_count>  (46) 
4

$$$$
Peonidin 3-O-arabinoside
     RDKit          3D

 53 56  0  0  0  0  0  0  0  0999 V2000
    4.6948   -0.7420    0.7817 C   0  0  2  0  0  0  0  0  0  0  0  0
    5.8460   -1.3108    1.3500 O   0  0  0  0  0  0  0  0  0  0  0  0
    3.9612    0.1608    1.8123 C   0  0  0  0  0  0  0  0  0  0  0  0
    2.5451    0.0527    1.7642 O   0  0  0  0  0  0  0  0  0  0  0  0
    2.0832    0.0875    0.4289 C   0  0  2  0  0  0  0  0  0  0  0  0
    0.6699    0.3034    0.4493 O   0  0  0  0  0  0  0  0  0  0  0  0
   -0.1406    0.6359   -0.6526 C   0  0  0  0  0  0  0  0  0  0  0  0
    0.3922    0.9242   -1.9207 C   0  0  0  0  0  0  0  0  0  0  0  0
   -0.4554    1.2930   -2.9783 C   0  0  0  0  0  0  0  0  0  0  0  0
    0.0121    1.5944   -4.2850 C   0  0  0  0  0  0  0  0  0  0  0  0
    1.3599    1.5296   -4.6513 O   0  0  0  0  0  0  0  0  0  0  0  0
   -0.9047    1.9741   -5.2731 C   0  0  0  0  0  0  0  0  0  0  0  0
   -2.2702    2.0546   -4.9930 C   0  0  0  0  0  0  0  0  0  0  0  0
   -3.1565    2.4344   -5.9986 O   0  0  0  0  0  0  0  0  0  0  0  0
   -2.7359    1.7531   -3.7100 C   0  0  0  0  0  0  0  0  0  0  0  0
   -1.8409    1.3743   -2.7061 C   0  0  0  0  0  0  0  0  0  0  0  0
   -2.3099    1.0931   -1.4965 O   0  0  0  0  0  3  0  0  0  0  0  0
   -1.5367    0.7215   -0.4807 C   0  0  0  0  0  0  0  0  0  0  0  0
   -2.1862    0.4278    0.8176 C   0  0  0  0  0  0  0  0  0  0  0  0
   -3.2195    1.2551    1.2754 C   0  0  0  0  0  0  0  0  0  0  0  0
   -3.8611    0.9997    2.4916 C   0  0  0  0  0  0  0  0  0  0  0  0
   -4.8766    1.8738    2.8856 O   0  0  0  0  0  0  0  0  0  0  0  0
   -3.4674   -0.1157    3.2689 C   0  0  0  0  0  0  0  0  0  0  0  0
   -4.0604   -0.4172    4.4978 O   0  0  0  0  0  0  0  0  0  0  0  0
   -2.4481   -0.9628    2.8068 C   0  0  0  0  0  0  0  0  0  0  0  0
   -2.0849   -2.0640    3.5993 O   0  0  0  0  0  0  0  0  0  0  0  0
   -1.0437   -2.9815    3.2784 C   0  0  0  0  0  0  0  0  0  0  0  0
   -1.8223   -0.6941    1.5762 C   0  0  0  0  0  0  0  0  0  0  0  0
    2.4362   -1.2539   -0.2782 C   0  0  2  0  0  0  0  0  0  0  0  0
    1.3890   -2.1908   -0.1959 O   0  0  0  0  0  0  0  0  0  0  0  0
    3.7692   -1.8542    0.2515 C   0  0  2  0  0  0  0  0  0  0  0  0
    3.5573   -2.8488    1.2273 O   0  0  0  0  0  0  0  0  0  0  0  0
    4.9902   -0.1127   -0.0912 H   0  0  0  0  0  0  0  0  0  0  0  0
    6.5035   -0.5745    1.4570 H   0  0  0  0  0  0  0  0  0  0  0  0
    4.2806   -0.1223    2.8381 H   0  0  0  0  0  0  0  0  0  0  0  0
    4.2617    1.2220    1.6676 H   0  0  0  0  0  0  0  0  0  0  0  0
    2.5605    0.9439   -0.1040 H   0  0  0  0  0  0  0  0  0  0  0  0
    1.4555    0.8819   -2.0625 H   0  0  0  0  0  0  0  0  0  0  0  0
    2.1075    1.2428   -4.0367 H   0  0  0  0  0  0  0  0  0  0  0  0
   -0.5513    2.2064   -6.2702 H   0  0  0  0  0  0  0  0  0  0  0  0
   -4.1532    2.5023   -5.8286 H   0  0  0  0  0  0  0  0  0  0  0  0
   -3.7949    1.8135   -3.4911 H   0  0  0  0  0  0  0  0  0  0  0  0
   -3.5235    2.1150    0.6899 H   0  0  0  0  0  0  0  0  0  0  0  0
   -5.4095    1.7758    3.7374 H   0  0  0  0  0  0  0  0  0  0  0  0
   -4.7928    0.1319    4.9237 H   0  0  0  0  0  0  0  0  0  0  0  0
   -0.0746   -2.4454    3.1936 H   0  0  0  0  0  0  0  0  0  0  0  0
   -0.9627   -3.7354    4.0880 H   0  0  0  0  0  0  0  0  0  0  0  0
   -1.2756   -3.5059    2.3274 H   0  0  0  0  0  0  0  0  0  0  0  0
   -1.0697   -1.3675    1.1950 H   0  0  0  0  0  0  0  0  0  0  0  0
    2.5841   -1.0281   -1.3559 H   0  0  0  0  0  0  0  0  0  0  0  0
    1.1386   -2.2820    0.7598 H   0  0  0  0  0  0  0  0  0  0  0  0
    4.2850   -2.3464   -0.6024 H   0  0  0  0  0  0  0  0  0  0  0  0
    3.1454   -2.4227    2.0224 H   0  0  0  0  0  0  0  0  0  0  0  0
  1  2  1  0
  1  3  1  0
  3  4  1  0
  4  5  1  0
  5  6  1  0
  6  7  1  0
  7  8  2  0
  8  9  1  0
  9 10  2  0
 10 11  1  0
 10 12  1  0
 12 13  2  0
 13 14  1  0
 13 15  1  0
 15 16  2  0
 16 17  1  0
 17 18  2  0
 18 19  1  0
 19 20  2  0
 20 21  1  0
 21 22  1  0
 21 23  2  0
 23 24  1  0
 23 25  1  0
 25 26  1  0
 26 27  1  0
 25 28  2  0
  5 29  1  0
 29 30  1  0
 29 31  1  0
 31 32  1  0
 31  1  1  0
 18  7  1  0
 28 19  1  0
 16  9  1  0
  1 33  1  6
  2 34  1  0
  3 35  1  0
  3 36  1  0
  5 37  1  6
  8 38  1  0
 11 39  1  0
 12 40  1  0
 14 41  1  0
 15 42  1  0
 20 43  1  0
 22 44  1  0
 24 45  1  0
 27 46  1  0
 27 47  1  0
 27 48  1  0
 28 49  1  0
 29 50  1  6
 30 51  1  0
 31 52  1  6
 32 53  1  0
M  CHG  1  17   1
M  END
>  <LIG_ID>  (47) 
46

>  <_smiles>  (47) 
[H][C@@]1(O)CO[C@]([H])(OC2=CC3=C(O)C=C(O)C=C3[O+]=C2C2=CC(O)=C(O)C(OC)=C2)[C@]([H])(O)[C@]1([H])O

>  <_name>  (47) 
Peonidin 3-O-arabinoside

>  <_molecular_weight>  (47) 
449.385

>  <_formula>  (47) 
C21H21O11

>  <_logP>  (47) 
1.0296999999999992

>  <_molecular_wt_calculated>  (47) 
449.38799999999986

>  <_havy_atom_count>  (47) 
32

>  <_hydrogen_acceptors>  (47) 
10

>  <_hydrogen_donors>  (47) 
7

>  <_rotatable_bonds>  (47) 
12

>  <_amide_bonds>  (47) 
0

>  <_ring_count>  (47) 
4

$$$$
Petunidin 3-O-rutinoside
     RDKit          3D

 73 77  0  0  0  0  0  0  0  0999 V2000
   -4.3070    1.6579   -1.0683 C   0  0  2  0  0  0  0  0  0  0  0  0
   -4.2810    2.4509   -2.3761 C   0  0  0  0  0  0  0  0  0  0  0  0
   -4.0853    0.2905   -1.3773 O   0  0  0  0  0  0  0  0  0  0  0  0
   -3.9882   -0.5055   -0.2030 C   0  0  1  0  0  0  0  0  0  0  0  0
   -2.9135   -0.0876    0.6246 O   0  0  0  0  0  0  0  0  0  0  0  0
   -1.6634   -0.4272    0.0519 C   0  0  0  0  0  0  0  0  0  0  0  0
   -1.1208   -1.7294    0.6669 C   0  0  1  0  0  0  0  0  0  0  0  0
    0.0087   -2.1880   -0.0742 O   0  0  0  0  0  0  0  0  0  0  0  0
    1.2557   -1.8426    0.5057 C   0  0  1  0  0  0  0  0  0  0  0  0
    1.3780   -0.4216    0.6277 O   0  0  0  0  0  0  0  0  0  0  0  0
    2.6028    0.2410    0.5080 C   0  0  0  0  0  0  0  0  0  0  0  0
    3.1731    0.8243    1.6389 C   0  0  0  0  0  0  0  0  0  0  0  0
    4.4359    1.4328    1.5556 C   0  0  0  0  0  0  0  0  0  0  0  0
    5.0786    1.4327    0.2934 C   0  0  0  0  0  0  0  0  0  0  0  0
    6.3444    2.0063    0.1486 C   0  0  0  0  0  0  0  0  0  0  0  0
    6.9859    2.5864    1.2471 C   0  0  0  0  0  0  0  0  0  0  0  0
    8.2482    3.1596    1.1101 O   0  0  0  0  0  0  0  0  0  0  0  0
    6.3582    2.5941    2.4947 C   0  0  0  0  0  0  0  0  0  0  0  0
    5.0897    2.0262    2.6662 C   0  0  0  0  0  0  0  0  0  0  0  0
    4.5284    2.0776    3.9454 O   0  0  0  0  0  0  0  0  0  0  0  0
    4.4863    0.8951   -0.7683 O   0  0  0  0  0  3  0  0  0  0  0  0
    3.2846    0.3271   -0.7221 C   0  0  0  0  0  0  0  0  0  0  0  0
    2.7019   -0.1897   -1.9798 C   0  0  0  0  0  0  0  0  0  0  0  0
    1.3546    0.0459   -2.3055 C   0  0  0  0  0  0  0  0  0  0  0  0
    0.8112   -0.4514   -3.4947 C   0  0  0  0  0  0  0  0  0  0  0  0
   -0.5330   -0.2109   -3.7773 O   0  0  0  0  0  0  0  0  0  0  0  0
    1.6223   -1.1779   -4.3826 C   0  0  0  0  0  0  0  0  0  0  0  0
    1.0867   -1.6796   -5.5678 O   0  0  0  0  0  0  0  0  0  0  0  0
    2.9725   -1.3917   -4.0732 C   0  0  0  0  0  0  0  0  0  0  0  0
    3.5106   -0.8950   -2.8831 C   0  0  0  0  0  0  0  0  0  0  0  0
    1.4562   -2.5304    1.8776 C   0  0  2  0  0  0  0  0  0  0  0  0
    2.0211   -3.8012    1.6768 O   0  0  0  0  0  0  0  0  0  0  0  0
    0.1244   -2.6711    2.6554 C   0  0  1  0  0  0  0  0  0  0  0  0
    0.3523   -2.5401    4.0350 O   0  0  0  0  0  0  0  0  0  0  0  0
   -0.8802   -1.6029    2.2011 C   0  0  2  0  0  0  0  0  0  0  0  0
   -2.0889   -1.7079    2.9146 O   0  0  0  0  0  0  0  0  0  0  0  0
   -5.3054   -0.4741    0.5908 C   0  0  2  0  0  0  0  0  0  0  0  0
   -6.3166   -1.0781   -0.1773 O   0  0  0  0  0  0  0  0  0  0  0  0
   -5.6839    0.9783    0.9307 C   0  0  2  0  0  0  0  0  0  0  0  0
   -6.9613    1.0069    1.5153 O   0  0  0  0  0  0  0  0  0  0  0  0
   -5.6569    1.8475   -0.3405 C   0  0  1  0  0  0  0  0  0  0  0  0
   -5.8159    3.1998    0.0076 O   0  0  0  0  0  0  0  0  0  0  0  0
   -3.4808    2.0557   -0.4348 H   0  0  0  0  0  0  0  0  0  0  0  0
   -5.0969    2.1144   -3.0512 H   0  0  0  0  0  0  0  0  0  0  0  0
   -4.3968    3.5376   -2.1779 H   0  0  0  0  0  0  0  0  0  0  0  0
   -3.3086    2.2932   -2.8895 H   0  0  0  0  0  0  0  0  0  0  0  0
   -3.8386   -1.5646   -0.5170 H   0  0  0  0  0  0  0  0  0  0  0  0
   -1.6966   -0.5226   -1.0594 H   0  0  0  0  0  0  0  0  0  0  0  0
   -0.9621    0.4056    0.2615 H   0  0  0  0  0  0  0  0  0  0  0  0
   -1.9022   -2.5054    0.5189 H   0  0  0  0  0  0  0  0  0  0  0  0
    2.0463   -2.2100   -0.1852 H   0  0  0  0  0  0  0  0  0  0  0  0
    2.6247    0.7597    2.5657 H   0  0  0  0  0  0  0  0  0  0  0  0
    6.8287    2.0017   -0.8202 H   0  0  0  0  0  0  0  0  0  0  0  0
    8.7311    3.1711    0.2192 H   0  0  0  0  0  0  0  0  0  0  0  0
    6.8605    3.0469    3.3407 H   0  0  0  0  0  0  0  0  0  0  0  0
    3.6168    1.7145    4.1829 H   0  0  0  0  0  0  0  0  0  0  0  0
    0.7258    0.6288   -1.6451 H   0  0  0  0  0  0  0  0  0  0  0  0
   -0.9742   -0.5500   -4.6236 H   0  0  0  0  0  0  0  0  0  0  0  0
    1.6517   -2.2053   -6.2245 H   0  0  0  0  0  0  0  0  0  0  0  0
    3.6062   -1.9451   -4.7545 H   0  0  0  0  0  0  0  0  0  0  0  0
    4.5548   -1.0758   -2.6587 H   0  0  0  0  0  0  0  0  0  0  0  0
    2.1675   -1.9060    2.4683 H   0  0  0  0  0  0  0  0  0  0  0  0
    2.4107   -4.0838    2.5452 H   0  0  0  0  0  0  0  0  0  0  0  0
   -0.3234   -3.6719    2.4434 H   0  0  0  0  0  0  0  0  0  0  0  0
    0.7624   -3.3914    4.3393 H   0  0  0  0  0  0  0  0  0  0  0  0
   -0.4464   -0.6042    2.4302 H   0  0  0  0  0  0  0  0  0  0  0  0
   -2.4545   -2.6186    2.7636 H   0  0  0  0  0  0  0  0  0  0  0  0
   -5.1563   -1.0451    1.5382 H   0  0  0  0  0  0  0  0  0  0  0  0
   -7.0074   -1.4040    0.4569 H   0  0  0  0  0  0  0  0  0  0  0  0
   -4.9302    1.3699    1.6561 H   0  0  0  0  0  0  0  0  0  0  0  0
   -7.0128    1.8352    2.0602 H   0  0  0  0  0  0  0  0  0  0  0  0
   -6.4788    1.5246   -1.0243 H   0  0  0  0  0  0  0  0  0  0  0  0
   -6.7918    3.3679    0.0777 H   0  0  0  0  0  0  0  0  0  0  0  0
  1  2  1  0
  1  3  1  0
  3  4  1  0
  4  5  1  0
  5  6  1  0
  6  7  1  0
  7  8  1  0
  8  9  1  0
  9 10  1  0
 10 11  1  0
 11 12  2  0
 12 13  1  0
 13 14  2  0
 14 15  1  0
 15 16  2  0
 16 17  1  0
 16 18  1  0
 18 19  2  0
 19 20  1  0
 14 21  1  0
 21 22  2  0
 22 23  1  0
 23 24  2  0
 24 25  1  0
 25 26  1  0
 25 27  2  0
 27 28  1  0
 27 29  1  0
 29 30  2  0
  9 31  1  0
 31 32  1  0
 31 33  1  0
 33 34  1  0
 33 35  1  0
 35 36  1  0
  4 37  1  0
 37 38  1  0
 37 39  1  0
 39 40  1  0
 39 41  1  0
 41 42  1  0
 41  1  1  0
 35  7  1  0
 22 11  1  0
 30 23  1  0
 19 13  1  0
  1 43  1  1
  2 44  1  0
  2 45  1  0
  2 46  1  0
  4 47  1  6
  6 48  1  0
  6 49  1  0
  7 50  1  1
  9 51  1  6
 12 52  1  0
 15 53  1  0
 17 54  1  0
 18 55  1  0
 20 56  1  0
 24 57  1  0
 26 58  1  0
 28 59  1  0
 29 60  1  0
 30 61  1  0
 31 62  1  1
 32 63  1  0
 33 64  1  1
 34 65  1  0
 35 66  1  6
 36 67  1  0
 37 68  1  1
 38 69  1  0
 39 70  1  1
 40 71  1  0
 41 72  1  6
 42 73  1  0
M  CHG  1  21   1
M  END
>  <LIG_ID>  (48) 
47

>  <_smiles>  (48) 
[H][C@@]1(C)O[C@@]([H])(OC[C@@]2([H])O[C@@]([H])(OC3=CC4=C(C=C(O)C=C4O)[O+]=C3C3=CC(O)=C(O)C=C3)[C@]([H])(O)[C@@]([H])(O)[C@]2([H])O)[C@]([H])(O)[C@]([H])(O)[C@@]1([H])O

>  <_name>  (48) 
Petunidin 3-O-rutinoside

>  <_molecular_weight>  (48) 
595.526

>  <_formula>  (48) 
C27H31O15

>  <_logP>  (48) 
-0.7662

>  <_molecular_wt_calculated>  (48) 
595.5300000000016

>  <_havy_atom_count>  (48) 
42

>  <_hydrogen_acceptors>  (48) 
14

>  <_hydrogen_donors>  (48) 
10

>  <_rotatable_bonds>  (48) 
17

>  <_amide_bonds>  (48) 
0

>  <_ring_count>  (48) 
5

$$$$
Delphinidin 3-O-xyloside
     RDKit          3D

 50 53  0  0  0  0  0  0  0  0999 V2000
    3.5187   -2.0018    0.8769 C   0  0  1  0  0  0  0  0  0  0  0  0
    4.6994   -1.5965    1.7319 C   0  0  0  0  0  0  0  0  0  0  0  0
    4.4284   -1.8325    3.0903 O   0  0  0  0  0  0  0  0  0  0  0  0
    2.3960   -1.2815    1.2251 O   0  0  0  0  0  0  0  0  0  0  0  0
    1.7709   -0.9223    0.0119 C   0  0  1  0  0  0  0  0  0  0  0  0
    0.7979   -0.0717    0.0598 O   0  0  0  0  0  0  0  0  0  0  0  0
   -0.1740    0.7778    0.1076 C   0  0  0  0  0  0  0  0  0  0  0  0
   -1.4995    0.5282   -0.1536 C   0  0  0  0  0  0  0  0  0  0  0  0
   -2.3428    1.5391   -0.0646 O   0  0  0  0  0  3  0  0  0  0  0  0
   -2.0707    2.7565    0.2470 C   0  0  0  0  0  0  0  0  0  0  0  0
   -3.0871    3.7256    0.2992 C   0  0  0  0  0  0  0  0  0  0  0  0
   -2.7997    5.0157    0.6293 C   0  0  0  0  0  0  0  0  0  0  0  0
   -3.8286    5.9729    0.6776 O   0  0  0  0  0  0  0  0  0  0  0  0
   -1.5032    5.3467    0.9082 C   0  0  0  0  0  0  0  0  0  0  0  0
   -0.4776    4.3990    0.8622 C   0  0  0  0  0  0  0  0  0  0  0  0
    0.8110    4.7828    1.1512 O   0  0  0  0  0  0  0  0  0  0  0  0
   -0.7667    3.0904    0.5277 C   0  0  0  0  0  0  0  0  0  0  0  0
    0.1805    2.1147    0.4610 C   0  0  0  0  0  0  0  0  0  0  0  0
   -2.0520   -0.7792   -0.5302 C   0  0  0  0  0  0  0  0  0  0  0  0
   -3.2714   -0.8119   -1.2009 C   0  0  0  0  0  0  0  0  0  0  0  0
   -3.9064   -1.9826   -1.5338 C   0  0  0  0  0  0  0  0  0  0  0  0
   -5.1211   -2.0178   -2.2028 O   0  0  0  0  0  0  0  0  0  0  0  0
   -3.3291   -3.1814   -1.1985 C   0  0  0  0  0  0  0  0  0  0  0  0
   -3.9736   -4.3829   -1.5373 O   0  0  0  0  0  0  0  0  0  0  0  0
   -2.1402   -3.1870   -0.5430 C   0  0  0  0  0  0  0  0  0  0  0  0
   -1.5748   -4.3984   -0.2138 O   0  0  0  0  0  0  0  0  0  0  0  0
   -1.5083   -1.9734   -0.2118 C   0  0  0  0  0  0  0  0  0  0  0  0
    3.0006   -0.5002   -0.8444 C   0  0  2  0  0  0  0  0  0  0  0  0
    2.6511   -0.3947   -2.1808 O   0  0  0  0  0  0  0  0  0  0  0  0
    3.8736   -1.6995   -0.5591 C   0  0  1  0  0  0  0  0  0  0  0  0
    5.2273   -1.4404   -0.7510 O   0  0  0  0  0  0  0  0  0  0  0  0
    3.3964   -3.0956    1.0404 H   0  0  0  0  0  0  0  0  0  0  0  0
    4.9126   -0.5036    1.6676 H   0  0  0  0  0  0  0  0  0  0  0  0
    5.6119   -2.1625    1.4579 H   0  0  0  0  0  0  0  0  0  0  0  0
    3.5074   -1.4865    3.3052 H   0  0  0  0  0  0  0  0  0  0  0  0
    1.5308   -1.9382   -0.4465 H   0  0  0  0  0  0  0  0  0  0  0  0
   -4.0919    3.3917    0.0652 H   0  0  0  0  0  0  0  0  0  0  0  0
   -4.7648    5.6703    0.4639 H   0  0  0  0  0  0  0  0  0  0  0  0
   -1.2520    6.3667    1.1730 H   0  0  0  0  0  0  0  0  0  0  0  0
    1.6121    4.2059    1.1520 H   0  0  0  0  0  0  0  0  0  0  0  0
    1.2158    2.3407    0.6758 H   0  0  0  0  0  0  0  0  0  0  0  0
   -3.7285    0.1315   -1.4658 H   0  0  0  0  0  0  0  0  0  0  0  0
   -5.5388   -1.1292   -2.4456 H   0  0  0  0  0  0  0  0  0  0  0  0
   -3.5793   -5.2828   -1.3047 H   0  0  0  0  0  0  0  0  0  0  0  0
   -0.7078   -4.4691    0.2651 H   0  0  0  0  0  0  0  0  0  0  0  0
   -0.6120   -2.0918    0.3332 H   0  0  0  0  0  0  0  0  0  0  0  0
    3.4428    0.4069   -0.4077 H   0  0  0  0  0  0  0  0  0  0  0  0
    1.9728   -1.0922   -2.3643 H   0  0  0  0  0  0  0  0  0  0  0  0
    3.5343   -2.5594   -1.1834 H   0  0  0  0  0  0  0  0  0  0  0  0
    5.6093   -2.2969   -1.1229 H   0  0  0  0  0  0  0  0  0  0  0  0
  1  2  1  0
  2  3  1  0
  1  4  1  0
  4  5  1  0
  5  6  1  0
  6  7  1  0
  7  8  1  0
  8  9  2  0
  9 10  1  0
 10 11  2  0
 11 12  1  0
 12 13  1  0
 12 14  2  0
 14 15  1  0
 15 16  1  0
 15 17  2  0
 17 18  1  0
  8 19  1  0
 19 20  2  0
 20 21  1  0
 21 22  1  0
 21 23  2  0
 23 24  1  0
 23 25  1  0
 25 26  1  0
 25 27  2  0
  5 28  1  0
 28 29  1  0
 28 30  1  0
 30 31  1  0
 30  1  1  0
 18  7  2  0
 27 19  1  0
 17 10  1  0
  1 32  1  6
  2 33  1  0
  2 34  1  0
  3 35  1  0
  5 36  1  6
 11 37  1  0
 13 38  1  0
 14 39  1  0
 16 40  1  0
 18 41  1  0
 20 42  1  0
 22 43  1  0
 24 44  1  0
 26 45  1  0
 27 46  1  0
 28 47  1  1
 29 48  1  0
 30 49  1  6
 31 50  1  0
M  CHG  1   9   1
M  END
>  <LIG_ID>  (49) 
48

>  <_smiles>  (49) 
[H][C@]1(CO)O[C@@]([H])(OC2=C([O+]=C3C=C(O)C=C(O)C3=C2)C2=CC(O)=C(O)C(O)=C2)[C@]([H])(O)[C@@]1([H])O

>  <_name>  (49) 
Delphinidin 3-O-xyloside

>  <_molecular_weight>  (49) 
435.358

>  <_formula>  (49) 
C20H19O11

>  <_logP>  (49) 
0.7266999999999995

>  <_molecular_wt_calculated>  (49) 
435.3609999999999

>  <_havy_atom_count>  (49) 
31

>  <_hydrogen_acceptors>  (49) 
10

>  <_hydrogen_donors>  (49) 
8

>  <_rotatable_bonds>  (49) 
12

>  <_amide_bonds>  (49) 
0

>  <_ring_count>  (49) 
4

$$$$
Petunidin 3-O-(6''-p-coumaroyl-glucoside)
     RDKit          3D

 74 78  0  0  0  0  0  0  0  0999 V2000
    1.1447    2.1887   -2.1291 C   0  0  1  0  0  0  0  0  0  0  0  0
    2.1763    3.1585   -1.5362 C   0  0  0  0  0  0  0  0  0  0  0  0
    3.1313    2.4527   -0.7445 O   0  0  0  0  0  0  0  0  0  0  0  0
    2.9166    2.0897    0.5919 C   0  0  0  0  0  0  0  0  0  0  0  0
    1.8855    2.4797    1.2039 O   0  0  0  0  0  0  0  0  0  0  0  0
    3.8959    1.2540    1.3035 C   0  0  0  0  0  0  0  0  0  0  0  0
    5.0145    0.8143    0.7115 C   0  0  0  0  0  0  0  0  0  0  0  0
    6.0314   -0.0257    1.3912 C   0  0  0  0  0  0  0  0  0  0  0  0
    5.7350   -0.8059    2.5278 C   0  0  0  0  0  0  0  0  0  0  0  0
    6.7265   -1.5908    3.1251 C   0  0  0  0  0  0  0  0  0  0  0  0
    8.0194   -1.6174    2.5957 C   0  0  0  0  0  0  0  0  0  0  0  0
    8.9960   -2.4035    3.2031 O   0  0  0  0  0  0  0  0  0  0  0  0
    8.3191   -0.8575    1.4586 C   0  0  0  0  0  0  0  0  0  0  0  0
    7.3308   -0.0721    0.8579 C   0  0  0  0  0  0  0  0  0  0  0  0
    0.3883    1.6107   -1.0849 O   0  0  0  0  0  0  0  0  0  0  0  0
   -0.3164    0.4620   -1.5348 C   0  0  0  0  0  0  0  0  0  0  0  0
   -1.2815    0.1427   -0.5295 O   0  0  0  0  0  0  0  0  0  0  0  0
   -2.0117   -1.0544   -0.4153 C   0  0  0  0  0  0  0  0  0  0  0  0
   -2.9829   -1.1797    0.5988 C   0  0  0  0  0  0  0  0  0  0  0  0
   -3.6508   -2.3215    0.7384 O   0  0  0  0  0  3  0  0  0  0  0  0
   -3.4699   -3.3760   -0.0473 C   0  0  0  0  0  0  0  0  0  0  0  0
   -4.2256   -4.5293    0.1790 C   0  0  0  0  0  0  0  0  0  0  0  0
   -4.0537   -5.6553   -0.6313 C   0  0  0  0  0  0  0  0  0  0  0  0
   -4.8024   -6.8093   -0.4107 O   0  0  0  0  0  0  0  0  0  0  0  0
   -3.1242   -5.6262   -1.6729 C   0  0  0  0  0  0  0  0  0  0  0  0
   -2.3569   -4.4814   -1.9216 C   0  0  0  0  0  0  0  0  0  0  0  0
   -1.4564   -4.5318   -2.9899 O   0  0  0  0  0  0  0  0  0  0  0  0
   -2.5243   -3.3372   -1.0975 C   0  0  0  0  0  0  0  0  0  0  0  0
   -1.7874   -2.1534   -1.2610 C   0  0  0  0  0  0  0  0  0  0  0  0
   -3.2750   -0.0853    1.5561 C   0  0  0  0  0  0  0  0  0  0  0  0
   -3.5034   -0.4012    2.9033 C   0  0  0  0  0  0  0  0  0  0  0  0
   -3.7979    0.6037    3.8316 C   0  0  0  0  0  0  0  0  0  0  0  0
   -4.0138    0.2827    5.1709 O   0  0  0  0  0  0  0  0  0  0  0  0
   -3.8759    1.9389    3.4192 C   0  0  0  0  0  0  0  0  0  0  0  0
   -4.1654    2.9229    4.3656 O   0  0  0  0  0  0  0  0  0  0  0  0
   -3.6658    2.2749    2.0696 C   0  0  0  0  0  0  0  0  0  0  0  0
   -3.7531    3.6238    1.6897 O   0  0  0  0  0  0  0  0  0  0  0  0
   -3.4769    4.1157    0.3829 C   0  0  0  0  0  0  0  0  0  0  0  0
   -3.3784    1.2545    1.1407 C   0  0  0  0  0  0  0  0  0  0  0  0
   -1.0277    0.6831   -2.9114 C   0  0  2  0  0  0  0  0  0  0  0  0
   -0.2865    0.0739   -3.9391 O   0  0  0  0  0  0  0  0  0  0  0  0
   -1.1730    2.1859   -3.2268 C   0  0  1  0  0  0  0  0  0  0  0  0
   -2.0954    2.7631   -2.3374 O   0  0  0  0  0  0  0  0  0  0  0  0
    0.1872    2.9242   -3.1019 C   0  0  2  0  0  0  0  0  0  0  0  0
    0.7918    3.0965   -4.3606 O   0  0  0  0  0  0  0  0  0  0  0  0
    1.7189    1.4019   -2.6750 H   0  0  0  0  0  0  0  0  0  0  0  0
    1.6799    3.9508   -0.9333 H   0  0  0  0  0  0  0  0  0  0  0  0
    2.7209    3.6567   -2.3665 H   0  0  0  0  0  0  0  0  0  0  0  0
    3.6900    1.0209    2.3391 H   0  0  0  0  0  0  0  0  0  0  0  0
    5.2202    1.1140   -0.3097 H   0  0  0  0  0  0  0  0  0  0  0  0
    4.7392   -0.8357    2.9471 H   0  0  0  0  0  0  0  0  0  0  0  0
    6.4870   -2.1857    3.9974 H   0  0  0  0  0  0  0  0  0  0  0  0
    9.9421   -2.4450    2.8425 H   0  0  0  0  0  0  0  0  0  0  0  0
    9.3167   -0.8754    1.0385 H   0  0  0  0  0  0  0  0  0  0  0  0
    7.5841    0.5079   -0.0214 H   0  0  0  0  0  0  0  0  0  0  0  0
    0.4115   -0.3775   -1.6026 H   0  0  0  0  0  0  0  0  0  0  0  0
   -4.9465   -4.5495    0.9871 H   0  0  0  0  0  0  0  0  0  0  0  0
   -5.4852   -6.8632    0.3362 H   0  0  0  0  0  0  0  0  0  0  0  0
   -2.9981   -6.5013   -2.2984 H   0  0  0  0  0  0  0  0  0  0  0  0
   -0.8707   -3.7633   -3.2821 H   0  0  0  0  0  0  0  0  0  0  0  0
   -1.0318   -2.0799   -2.0188 H   0  0  0  0  0  0  0  0  0  0  0  0
   -3.4413   -1.4300    3.2376 H   0  0  0  0  0  0  0  0  0  0  0  0
   -3.9643   -0.6738    5.5021 H   0  0  0  0  0  0  0  0  0  0  0  0
   -4.2340    3.9039    4.1230 H   0  0  0  0  0  0  0  0  0  0  0  0
   -2.4289    3.8786    0.1032 H   0  0  0  0  0  0  0  0  0  0  0  0
   -4.1831    3.6730   -0.3508 H   0  0  0  0  0  0  0  0  0  0  0  0
   -3.6048    5.2174    0.3761 H   0  0  0  0  0  0  0  0  0  0  0  0
   -3.2630    1.4961    0.0938 H   0  0  0  0  0  0  0  0  0  0  0  0
   -2.0516    0.2403   -2.8921 H   0  0  0  0  0  0  0  0  0  0  0  0
   -0.5366   -0.8858   -3.9539 H   0  0  0  0  0  0  0  0  0  0  0  0
   -1.5553    2.3054   -4.2684 H   0  0  0  0  0  0  0  0  0  0  0  0
   -3.0001    2.4779   -2.6311 H   0  0  0  0  0  0  0  0  0  0  0  0
   -0.0202    3.9424   -2.7025 H   0  0  0  0  0  0  0  0  0  0  0  0
    0.9466    2.1971   -4.7496 H   0  0  0  0  0  0  0  0  0  0  0  0
  1  2  1  0
  2  3  1  0
  3  4  1  0
  4  5  2  0
  4  6  1  0
  6  7  2  0
  7  8  1  0
  8  9  2  0
  9 10  1  0
 10 11  2  0
 11 12  1  0
 11 13  1  0
 13 14  2  0
  1 15  1  0
 15 16  1  0
 16 17  1  0
 17 18  1  0
 18 19  1  0
 19 20  2  0
 20 21  1  0
 21 22  2  0
 22 23  1  0
 23 24  1  0
 23 25  2  0
 25 26  1  0
 26 27  1  0
 26 28  2  0
 28 29  1  0
 19 30  1  0
 30 31  2  0
 31 32  1  0
 32 33  1  0
 32 34  2  0
 34 35  1  0
 34 36  1  0
 36 37  1  0
 37 38  1  0
 36 39  2  0
 16 40  1  0
 40 41  1  0
 40 42  1  0
 42 43  1  0
 42 44  1  0
 44 45  1  0
 44  1  1  0
 14  8  1  0
 29 18  2  0
 39 30  1  0
 28 21  1  0
  1 46  1  6
  2 47  1  0
  2 48  1  0
  6 49  1  0
  7 50  1  0
  9 51  1  0
 10 52  1  0
 12 53  1  0
 13 54  1  0
 14 55  1  0
 16 56  1  0
 22 57  1  0
 24 58  1  0
 25 59  1  0
 27 60  1  0
 29 61  1  0
 31 62  1  0
 33 63  1  0
 35 64  1  0
 38 65  1  0
 38 66  1  0
 38 67  1  0
 39 68  1  0
 40 69  1  1
 41 70  1  0
 42 71  1  6
 43 72  1  0
 44 73  1  1
 45 74  1  0
M  CHG  1  20   1
M  END
>  <LIG_ID>  (50) 
49

>  <_smiles>  (50) 
[H][C@]1(COC(=O)\C=C\C2=CC=C(O)C=C2)OC(OC2=C([O+]=C3C=C(O)C=C(O)C3=C2)C2=CC(O)=C(O)C(OC)=C2)[C@]([H])(O)[C@@]([H])(O)[C@]1([H])O

>  <_name>  (50) 
Petunidin 3-O-(6''-p-coumaroyl-glucoside)

>  <_molecular_weight>  (50) 
625.554

>  <_formula>  (50) 
C31H29O14

>  <_logP>  (50) 
2.360500000000003

>  <_molecular_wt_calculated>  (50) 
625.5590000000014

>  <_havy_atom_count>  (50) 
45

>  <_hydrogen_acceptors>  (50) 
13

>  <_hydrogen_donors>  (50) 
8

>  <_rotatable_bonds>  (50) 
17

>  <_amide_bonds>  (50) 
0

>  <_ring_count>  (50) 
5

$$$$
Pelargonidin 3-O-galactoside
     RDKit          3D

 52 55  0  0  0  0  0  0  0  0999 V2000
    4.9470    1.7328   -2.7926 O   0  0  0  0  0  0  0  0  0  0  0  0
    3.6364    1.7517   -2.2933 C   0  0  0  0  0  0  0  0  0  0  0  0
    3.6202    1.4398   -0.7853 C   0  0  1  0  0  0  0  0  0  0  0  0
    2.3015    1.5905   -0.2626 O   0  0  0  0  0  0  0  0  0  0  0  0
    1.5836    0.3710   -0.2503 C   0  0  2  0  0  0  0  0  0  0  0  0
    0.2175    0.6600    0.0572 O   0  0  0  0  0  0  0  0  0  0  0  0
   -0.8713   -0.2225   -0.0732 C   0  0  0  0  0  0  0  0  0  0  0  0
   -0.7473   -1.4914   -0.6650 C   0  0  0  0  0  0  0  0  0  0  0  0
   -1.8733   -2.3180   -0.8123 C   0  0  0  0  0  0  0  0  0  0  0  0
   -1.8217   -3.6112   -1.3968 C   0  0  0  0  0  0  0  0  0  0  0  0
   -0.6397   -4.1970   -1.8600 O   0  0  0  0  0  0  0  0  0  0  0  0
   -3.0004   -4.3569   -1.5223 C   0  0  0  0  0  0  0  0  0  0  0  0
   -4.2223   -3.8494   -1.0761 C   0  0  0  0  0  0  0  0  0  0  0  0
   -5.3766   -4.6169   -1.2146 O   0  0  0  0  0  0  0  0  0  0  0  0
   -4.2771   -2.5794   -0.4948 C   0  0  0  0  0  0  0  0  0  0  0  0
   -3.1154   -1.8147   -0.3607 C   0  0  0  0  0  0  0  0  0  0  0  0
   -3.1955   -0.6119    0.1954 O   0  0  0  0  0  3  0  0  0  0  0  0
   -2.1456    0.1854    0.3679 C   0  0  0  0  0  0  0  0  0  0  0  0
   -2.3696    1.5005    1.0094 C   0  0  0  0  0  0  0  0  0  0  0  0
   -3.4991    2.2580    0.6578 C   0  0  0  0  0  0  0  0  0  0  0  0
   -3.7394    3.4943    1.2652 C   0  0  0  0  0  0  0  0  0  0  0  0
   -2.8643    3.9811    2.2408 C   0  0  0  0  0  0  0  0  0  0  0  0
   -3.1155    5.2149    2.8368 O   0  0  0  0  0  0  0  0  0  0  0  0
   -1.7473    3.2220    2.6127 C   0  0  0  0  0  0  0  0  0  0  0  0
   -1.5044    1.9857    2.0067 C   0  0  0  0  0  0  0  0  0  0  0  0
    2.1963   -0.5956    0.8042 C   0  0  2  0  0  0  0  0  0  0  0  0
    1.5959   -0.4326    2.0657 O   0  0  0  0  0  0  0  0  0  0  0  0
    3.7302   -0.4195    0.9157 C   0  0  1  0  0  0  0  0  0  0  0  0
    4.3213   -1.6397    1.2824 O   0  0  0  0  0  0  0  0  0  0  0  0
    4.3090    0.0877   -0.4169 C   0  0  1  0  0  0  0  0  0  0  0  0
    4.1066   -0.8716   -1.4270 O   0  0  0  0  0  0  0  0  0  0  0  0
    5.3810    2.5706   -2.4840 H   0  0  0  0  0  0  0  0  0  0  0  0
    3.0324    1.0046   -2.8490 H   0  0  0  0  0  0  0  0  0  0  0  0
    3.1733    2.7485   -2.4746 H   0  0  0  0  0  0  0  0  0  0  0  0
    4.2261    2.2355   -0.2979 H   0  0  0  0  0  0  0  0  0  0  0  0
    1.6223   -0.0847   -1.2651 H   0  0  0  0  0  0  0  0  0  0  0  0
    0.2132   -1.8094   -1.0241 H   0  0  0  0  0  0  0  0  0  0  0  0
    0.2734   -3.7710   -1.7985 H   0  0  0  0  0  0  0  0  0  0  0  0
   -2.9649   -5.3429   -1.9691 H   0  0  0  0  0  0  0  0  0  0  0  0
   -6.2788   -4.2784   -0.9010 H   0  0  0  0  0  0  0  0  0  0  0  0
   -5.2237   -2.1845   -0.1467 H   0  0  0  0  0  0  0  0  0  0  0  0
   -4.1882    1.8978   -0.0964 H   0  0  0  0  0  0  0  0  0  0  0  0
   -4.6076    4.0739    0.9782 H   0  0  0  0  0  0  0  0  0  0  0  0
   -2.5011    5.5943    3.5477 H   0  0  0  0  0  0  0  0  0  0  0  0
   -1.0718    3.5845    3.3772 H   0  0  0  0  0  0  0  0  0  0  0  0
   -0.6561    1.4007    2.3354 H   0  0  0  0  0  0  0  0  0  0  0  0
    1.9889   -1.6342    0.4686 H   0  0  0  0  0  0  0  0  0  0  0  0
    1.7183    0.5156    2.3343 H   0  0  0  0  0  0  0  0  0  0  0  0
    3.9536    0.3452    1.6977 H   0  0  0  0  0  0  0  0  0  0  0  0
    5.2477   -1.4334    1.5743 H   0  0  0  0  0  0  0  0  0  0  0  0
    5.4027    0.2751   -0.2955 H   0  0  0  0  0  0  0  0  0  0  0  0
    4.8198   -1.5546   -1.3256 H   0  0  0  0  0  0  0  0  0  0  0  0
  1  2  1  0
  2  3  1  0
  3  4  1  0
  4  5  1  0
  5  6  1  0
  6  7  1  0
  7  8  2  0
  8  9  1  0
  9 10  2  0
 10 11  1  0
 10 12  1  0
 12 13  2  0
 13 14  1  0
 13 15  1  0
 15 16  2  0
 16 17  1  0
 17 18  2  0
 18 19  1  0
 19 20  2  0
 20 21  1  0
 21 22  2  0
 22 23  1  0
 22 24  1  0
 24 25  2  0
  5 26  1  0
 26 27  1  0
 26 28  1  0
 28 29  1  0
 28 30  1  0
 30 31  1  0
 30  3  1  0
 18  7  1  0
 25 19  1  0
 16  9  1  0
  1 32  1  0
  2 33  1  0
  2 34  1  0
  3 35  1  1
  5 36  1  6
  8 37  1  0
 11 38  1  0
 12 39  1  0
 14 40  1  0
 15 41  1  0
 20 42  1  0
 21 43  1  0
 23 44  1  0
 24 45  1  0
 25 46  1  0
 26 47  1  6
 27 48  1  0
 28 49  1  1
 29 50  1  0
 30 51  1  1
 31 52  1  0
M  CHG  1  17   1
M  END
>  <LIG_ID>  (51) 
50

>  <_smiles>  (51) 
OC[C@H]1O[C@H](OC2=CC3=C(O)C=C(O)C=C3[O+]=C2C2=CC=C(O)C=C2)[C@H](O)[C@@H](O)[C@H]1O

>  <_name>  (51) 
Pelargonidin 3-O-galactoside

>  <_molecular_weight>  (51) 
433.385

>  <_formula>  (51) 
C21H21O10

>  <_logP>  (51) 
0.6763999999999999

>  <_molecular_wt_calculated>  (51) 
433.38899999999984

>  <_havy_atom_count>  (51) 
31

>  <_hydrogen_acceptors>  (51) 
9

>  <_hydrogen_donors>  (51) 
7

>  <_rotatable_bonds>  (51) 
11

>  <_amide_bonds>  (51) 
0

>  <_ring_count>  (51) 
4

$$$$
Pelargonidin 3-O-sambubioside
     RDKit          3D

 69 73  0  0  0  0  0  0  0  0999 V2000
    5.0584    1.5657    0.7041 C   0  0  2  0  0  0  0  0  0  0  0  0
    5.9089    1.7354    1.8088 O   0  0  0  0  0  0  0  0  0  0  0  0
    3.6786    1.0505    1.1674 C   0  0  0  0  0  0  0  0  0  0  0  0
    3.6425   -0.3619    1.1538 O   0  0  0  0  0  0  0  0  0  0  0  0
    3.6316   -0.8618   -0.1815 C   0  0  1  0  0  0  0  0  0  0  0  0
    2.3287   -0.7751   -0.7326 O   0  0  0  0  0  0  0  0  0  0  0  0
    1.4266   -1.6649   -0.0917 C   0  0  1  0  0  0  0  0  0  0  0  0
    0.1812   -0.8755    0.3519 C   0  0  1  0  0  0  0  0  0  0  0  0
   -0.3555   -0.1138   -0.7399 O   0  0  0  0  0  0  0  0  0  0  0  0
   -1.6023    0.5319   -0.7223 C   0  0  0  0  0  0  0  0  0  0  0  0
   -2.4608    0.3240   -1.8034 C   0  0  0  0  0  0  0  0  0  0  0  0
   -3.7622    0.8357   -1.7747 C   0  0  0  0  0  0  0  0  0  0  0  0
   -4.1578    1.5825   -0.6453 C   0  0  0  0  0  0  0  0  0  0  0  0
   -5.4561    2.0953   -0.5665 C   0  0  0  0  0  0  0  0  0  0  0  0
   -6.3665    1.8713   -1.6076 C   0  0  0  0  0  0  0  0  0  0  0  0
   -7.6620    2.3788   -1.5377 O   0  0  0  0  0  0  0  0  0  0  0  0
   -5.9754    1.1327   -2.7293 C   0  0  0  0  0  0  0  0  0  0  0  0
   -4.6766    0.6107   -2.8210 C   0  0  0  0  0  0  0  0  0  0  0  0
   -4.2998   -0.1278   -3.9433 O   0  0  0  0  0  0  0  0  0  0  0  0
   -3.2980    1.8127    0.3411 O   0  0  0  0  0  3  0  0  0  0  0  0
   -2.0484    1.3530    0.3398 C   0  0  0  0  0  0  0  0  0  0  0  0
   -1.1665    1.7763    1.4390 C   0  0  0  0  0  0  0  0  0  0  0  0
   -1.5631    1.5814    2.7702 C   0  0  0  0  0  0  0  0  0  0  0  0
   -0.7476    2.0194    3.8182 C   0  0  0  0  0  0  0  0  0  0  0  0
    0.4590    2.6778    3.5434 C   0  0  0  0  0  0  0  0  0  0  0  0
    1.2791    3.1199    4.5789 O   0  0  0  0  0  0  0  0  0  0  0  0
    0.8431    2.8975    2.2168 C   0  0  0  0  0  0  0  0  0  0  0  0
    0.0360    2.4491    1.1671 C   0  0  0  0  0  0  0  0  0  0  0  0
   -0.7964   -1.7302    0.9291 O   0  0  0  0  0  0  0  0  0  0  0  0
   -1.2635   -2.7081    0.0108 C   0  0  2  0  0  0  0  0  0  0  0  0
   -2.3739   -3.5114    0.7077 C   0  0  0  0  0  0  0  0  0  0  0  0
   -3.0319   -4.3609   -0.1937 O   0  0  0  0  0  0  0  0  0  0  0  0
   -0.1027   -3.6262   -0.4503 C   0  0  1  0  0  0  0  0  0  0  0  0
   -0.5437   -4.5968   -1.3683 O   0  0  0  0  0  0  0  0  0  0  0  0
    1.0218   -2.7798   -1.0691 C   0  0  2  0  0  0  0  0  0  0  0  0
    2.1235   -3.6069   -1.3420 O   0  0  0  0  0  0  0  0  0  0  0  0
    4.6336   -0.1270   -1.1199 C   0  0  2  0  0  0  0  0  0  0  0  0
    5.2374   -1.0374   -2.0023 O   0  0  0  0  0  0  0  0  0  0  0  0
    5.7129    0.5788   -0.2892 C   0  0  1  0  0  0  0  0  0  0  0  0
    6.5923    1.2629   -1.1437 O   0  0  0  0  0  0  0  0  0  0  0  0
    4.9090    2.5461    0.1918 H   0  0  0  0  0  0  0  0  0  0  0  0
    5.6334    2.5775    2.2571 H   0  0  0  0  0  0  0  0  0  0  0  0
    3.4682    1.4008    2.2000 H   0  0  0  0  0  0  0  0  0  0  0  0
    2.8741    1.4722    0.5221 H   0  0  0  0  0  0  0  0  0  0  0  0
    3.9562   -1.9275   -0.1333 H   0  0  0  0  0  0  0  0  0  0  0  0
    1.8477   -2.1461    0.8264 H   0  0  0  0  0  0  0  0  0  0  0  0
    0.5263   -0.1828    1.1428 H   0  0  0  0  0  0  0  0  0  0  0  0
   -2.1217   -0.2809   -2.6358 H   0  0  0  0  0  0  0  0  0  0  0  0
   -5.7558    2.6694    0.3015 H   0  0  0  0  0  0  0  0  0  0  0  0
   -7.9774    2.9180   -0.7397 H   0  0  0  0  0  0  0  0  0  0  0  0
   -6.6840    0.9633   -3.5304 H   0  0  0  0  0  0  0  0  0  0  0  0
   -4.9443   -0.3012   -4.7059 H   0  0  0  0  0  0  0  0  0  0  0  0
   -2.4971    1.0813    2.9957 H   0  0  0  0  0  0  0  0  0  0  0  0
   -1.0566    1.8519    4.8421 H   0  0  0  0  0  0  0  0  0  0  0  0
    1.0290    2.9764    5.5503 H   0  0  0  0  0  0  0  0  0  0  0  0
    1.7675    3.4172    1.9994 H   0  0  0  0  0  0  0  0  0  0  0  0
    0.3443    2.6306    0.1447 H   0  0  0  0  0  0  0  0  0  0  0  0
   -1.7211   -2.2180   -0.8758 H   0  0  0  0  0  0  0  0  0  0  0  0
   -1.9404   -4.1223    1.5281 H   0  0  0  0  0  0  0  0  0  0  0  0
   -3.1085   -2.8115    1.1686 H   0  0  0  0  0  0  0  0  0  0  0  0
   -3.6183   -3.7853   -0.7510 H   0  0  0  0  0  0  0  0  0  0  0  0
    0.3045   -4.1561    0.4399 H   0  0  0  0  0  0  0  0  0  0  0  0
   -0.9276   -4.1199   -2.1504 H   0  0  0  0  0  0  0  0  0  0  0  0
    0.6466   -2.3199   -2.0154 H   0  0  0  0  0  0  0  0  0  0  0  0
    2.6568   -3.1540   -2.0463 H   0  0  0  0  0  0  0  0  0  0  0  0
    4.0938    0.6540   -1.7078 H   0  0  0  0  0  0  0  0  0  0  0  0
    4.5421   -1.2955   -2.6624 H   0  0  0  0  0  0  0  0  0  0  0  0
    6.2741   -0.2044    0.2756 H   0  0  0  0  0  0  0  0  0  0  0  0
    7.3947    1.4893   -0.6045 H   0  0  0  0  0  0  0  0  0  0  0  0
  1  2  1  0
  1  3  1  0
  3  4  1  0
  4  5  1  0
  5  6  1  0
  6  7  1  0
  7  8  1  0
  8  9  1  0
  9 10  1  0
 10 11  2  0
 11 12  1  0
 12 13  2  0
 13 14  1  0
 14 15  2  0
 15 16  1  0
 15 17  1  0
 17 18  2  0
 18 19  1  0
 13 20  1  0
 20 21  2  0
 21 22  1  0
 22 23  2  0
 23 24  1  0
 24 25  2  0
 25 26  1  0
 25 27  1  0
 27 28  2  0
  8 29  1  0
 29 30  1  0
 30 31  1  0
 31 32  1  0
 30 33  1  0
 33 34  1  0
 33 35  1  0
 35 36  1  0
  5 37  1  0
 37 38  1  0
 37 39  1  0
 39 40  1  0
 39  1  1  0
 35  7  1  0
 21 10  1  0
 28 22  1  0
 18 12  1  0
  1 41  1  6
  2 42  1  0
  3 43  1  0
  3 44  1  0
  5 45  1  1
  7 46  1  1
  8 47  1  1
 11 48  1  0
 14 49  1  0
 16 50  1  0
 17 51  1  0
 19 52  1  0
 23 53  1  0
 24 54  1  0
 26 55  1  0
 27 56  1  0
 28 57  1  0
 30 58  1  6
 31 59  1  0
 31 60  1  0
 32 61  1  0
 33 62  1  1
 34 63  1  0
 35 64  1  6
 36 65  1  0
 37 66  1  6
 38 67  1  0
 39 68  1  1
 40 69  1  0
M  CHG  1  20   1
M  END
>  <LIG_ID>  (52) 
51

>  <_smiles>  (52) 
[H][C@@]1(O)CO[C@@]([H])(O[C@@]2([H])[C@@]([H])(OC3=CC4=C(C=C(O)C=C4O)[O+]=C3C3=CC=C(O)C=C3)O[C@]([H])(CO)[C@@]([H])(O)[C@]2([H])O)[C@]([H])(O)[C@@]1([H])O

>  <_name>  (52) 
Pelargonidin 3-O-sambubioside

>  <_molecular_weight>  (52) 
565.5

>  <_formula>  (52) 
C26H29O14

>  <_logP>  (52) 
-0.8603000000000007

>  <_molecular_wt_calculated>  (52) 
565.5040000000015

>  <_havy_atom_count>  (52) 
40

>  <_hydrogen_acceptors>  (52) 
13

>  <_hydrogen_donors>  (52) 
9

>  <_rotatable_bonds>  (52) 
15

>  <_amide_bonds>  (52) 
0

>  <_ring_count>  (52) 
5

$$$$
Delphinidin 3-O-sambubioside
     RDKit          3D

 71 75  0  0  0  0  0  0  0  0999 V2000
    2.2296   -4.4039   -2.4190 O   0  0  0  0  0  0  0  0  0  0  0  0
    1.7347   -4.7388   -1.1521 C   0  0  0  0  0  0  0  0  0  0  0  0
    1.6825   -3.4985   -0.2512 C   0  0  0  0  0  0  0  0  0  0  0  0
    0.8147   -2.5431   -0.8458 O   0  0  0  0  0  0  0  0  0  0  0  0
    0.8460   -1.3379   -0.1062 C   0  0  0  0  0  0  0  0  0  0  0  0
   -0.2463   -0.5084   -0.4934 O   0  0  0  0  0  0  0  0  0  0  0  0
   -1.6041   -0.7778   -0.2592 C   0  0  0  0  0  0  0  0  0  0  0  0
   -2.0414   -1.9848    0.3099 C   0  0  0  0  0  0  0  0  0  0  0  0
   -3.4079   -2.1951    0.5565 C   0  0  0  0  0  0  0  0  0  0  0  0
   -3.9235   -3.3898    1.1246 C   0  0  0  0  0  0  0  0  0  0  0  0
   -3.1212   -4.4790    1.4779 O   0  0  0  0  0  0  0  0  0  0  0  0
   -5.3009   -3.5061    1.3487 C   0  0  0  0  0  0  0  0  0  0  0  0
   -6.1727   -2.4665    1.0183 C   0  0  0  0  0  0  0  0  0  0  0  0
   -7.5379   -2.6140    1.2537 O   0  0  0  0  0  0  0  0  0  0  0  0
   -5.6704   -1.2899    0.4551 C   0  0  0  0  0  0  0  0  0  0  0  0
   -4.2999   -1.1485    0.2227 C   0  0  0  0  0  0  0  0  0  0  0  0
   -3.8490   -0.0201   -0.3132 O   0  0  0  0  0  3  0  0  0  0  0  0
   -2.5643    0.2022   -0.5741 C   0  0  0  0  0  0  0  0  0  0  0  0
   -2.1831    1.5086   -1.1591 C   0  0  0  0  0  0  0  0  0  0  0  0
   -1.2446    1.6002   -2.2001 C   0  0  0  0  0  0  0  0  0  0  0  0
   -0.8775    2.8419   -2.7310 C   0  0  0  0  0  0  0  0  0  0  0  0
    0.0720    2.8556   -3.7548 O   0  0  0  0  0  0  0  0  0  0  0  0
   -1.4725    4.0215   -2.2240 C   0  0  0  0  0  0  0  0  0  0  0  0
   -1.1438    5.2927   -2.7013 O   0  0  0  0  0  0  0  0  0  0  0  0
   -2.4306    3.9283   -1.2046 C   0  0  0  0  0  0  0  0  0  0  0  0
   -3.0235    5.0892   -0.7102 O   0  0  0  0  0  0  0  0  0  0  0  0
   -2.7874    2.6790   -0.6821 C   0  0  0  0  0  0  0  0  0  0  0  0
    2.1609   -0.5855   -0.3942 C   0  0  0  0  0  0  0  0  0  0  0  0
    2.4767    0.2101    0.7382 O   0  0  0  0  0  0  0  0  0  0  0  0
    2.9723    1.4843    0.3543 C   0  0  0  0  0  0  0  0  0  0  0  0
    1.9390    2.3062   -0.1761 O   0  0  0  0  0  0  0  0  0  0  0  0
    0.9255    2.5468    0.7854 C   0  0  0  0  0  0  0  0  0  0  0  0
    1.4689    3.3288    1.9866 C   0  0  0  0  0  0  0  0  0  0  0  0
    1.9037    4.5935    1.5536 O   0  0  0  0  0  0  0  0  0  0  0  0
    2.6272    2.5439    2.6249 C   0  0  0  0  0  0  0  0  0  0  0  0
    3.2250    3.3217    3.6305 O   0  0  0  0  0  0  0  0  0  0  0  0
    3.6649    2.1669    1.5496 C   0  0  0  0  0  0  0  0  0  0  0  0
    4.6278    1.2958    2.0859 O   0  0  0  0  0  0  0  0  0  0  0  0
    3.3201   -1.5723   -0.6888 C   0  0  0  0  0  0  0  0  0  0  0  0
    3.4045   -1.7829   -2.0760 O   0  0  0  0  0  0  0  0  0  0  0  0
    3.1107   -2.9247    0.0327 C   0  0  0  0  0  0  0  0  0  0  0  0
    3.2661   -2.7452    1.4186 O   0  0  0  0  0  0  0  0  0  0  0  0
    2.2432   -5.2477   -2.9411 H   0  0  0  0  0  0  0  0  0  0  0  0
    0.7073   -5.1556   -1.2534 H   0  0  0  0  0  0  0  0  0  0  0  0
    2.3802   -5.5161   -0.6841 H   0  0  0  0  0  0  0  0  0  0  0  0
    1.2289   -3.8422    0.7080 H   0  0  0  0  0  0  0  0  0  0  0  0
    0.7564   -1.5336    0.9903 H   0  0  0  0  0  0  0  0  0  0  0  0
   -1.3126   -2.7343    0.5619 H   0  0  0  0  0  0  0  0  0  0  0  0
   -2.1210   -4.5198    1.3474 H   0  0  0  0  0  0  0  0  0  0  0  0
   -5.6975   -4.4156    1.7830 H   0  0  0  0  0  0  0  0  0  0  0  0
   -8.1974   -1.8793    1.0254 H   0  0  0  0  0  0  0  0  0  0  0  0
   -6.3452   -0.4828    0.1974 H   0  0  0  0  0  0  0  0  0  0  0  0
   -0.8027    0.7043   -2.6181 H   0  0  0  0  0  0  0  0  0  0  0  0
    0.4003    3.6944   -4.2108 H   0  0  0  0  0  0  0  0  0  0  0  0
   -0.4600    5.4667   -3.4235 H   0  0  0  0  0  0  0  0  0  0  0  0
   -3.7175    5.0582    0.0276 H   0  0  0  0  0  0  0  0  0  0  0  0
   -3.5217    2.6247    0.1127 H   0  0  0  0  0  0  0  0  0  0  0  0
    1.9906    0.0287   -1.3140 H   0  0  0  0  0  0  0  0  0  0  0  0
    3.7559    1.3688   -0.4308 H   0  0  0  0  0  0  0  0  0  0  0  0
    0.1262    3.1486    0.3053 H   0  0  0  0  0  0  0  0  0  0  0  0
    0.4478    1.5988    1.1185 H   0  0  0  0  0  0  0  0  0  0  0  0
    0.6457    3.4409    2.7310 H   0  0  0  0  0  0  0  0  0  0  0  0
    1.8814    5.1934    2.3443 H   0  0  0  0  0  0  0  0  0  0  0  0
    2.2054    1.6108    3.0710 H   0  0  0  0  0  0  0  0  0  0  0  0
    3.6698    2.6932    4.2571 H   0  0  0  0  0  0  0  0  0  0  0  0
    4.1585    3.0954    1.1742 H   0  0  0  0  0  0  0  0  0  0  0  0
    5.3015    1.8588    2.5492 H   0  0  0  0  0  0  0  0  0  0  0  0
    4.2769   -1.1167   -0.3393 H   0  0  0  0  0  0  0  0  0  0  0  0
    4.3014   -2.1692   -2.2561 H   0  0  0  0  0  0  0  0  0  0  0  0
    3.8899   -3.6418   -0.3200 H   0  0  0  0  0  0  0  0  0  0  0  0
    4.2380   -2.6358    1.5905 H   0  0  0  0  0  0  0  0  0  0  0  0
  1  2  1  0
  2  3  1  0
  3  4  1  0
  4  5  1  0
  5  6  1  0
  6  7  1  0
  7  8  2  0
  8  9  1  0
  9 10  2  0
 10 11  1  0
 10 12  1  0
 12 13  2  0
 13 14  1  0
 13 15  1  0
 15 16  2  0
 16 17  1  0
 17 18  2  0
 18 19  1  0
 19 20  2  0
 20 21  1  0
 21 22  1  0
 21 23  2  0
 23 24  1  0
 23 25  1  0
 25 26  1  0
 25 27  2  0
  5 28  1  0
 28 29  1  0
 29 30  1  0
 30 31  1  0
 31 32  1  0
 32 33  1  0
 33 34  1  0
 33 35  1  0
 35 36  1  0
 35 37  1  0
 37 38  1  0
 28 39  1  0
 39 40  1  0
 39 41  1  0
 41 42  1  0
 41  3  1  0
 18  7  1  0
 27 19  1  0
 37 30  1  0
 16  9  1  0
  1 43  1  0
  2 44  1  0
  2 45  1  0
  3 46  1  0
  5 47  1  0
  8 48  1  0
 11 49  1  0
 12 50  1  0
 14 51  1  0
 15 52  1  0
 20 53  1  0
 22 54  1  0
 24 55  1  0
 26 56  1  0
 27 57  1  0
 28 58  1  0
 30 59  1  0
 32 60  1  0
 32 61  1  0
 33 62  1  0
 34 63  1  0
 35 64  1  0
 36 65  1  0
 37 66  1  0
 38 67  1  0
 39 68  1  0
 40 69  1  0
 41 70  1  0
 42 71  1  0
M  CHG  1  17   1
M  END
>  <LIG_ID>  (53) 
52

>  <_smiles>  (53) 
OCC1OC(OC2=CC3=C(O)C=C(O)C=C3[O+]=C2C2=CC(O)=C(O)C(O)=C2)C(OC2OCC(O)C(O)C2O)C(O)C1O

>  <_name>  (53) 
Delphinidin 3-O-sambubioside

>  <_molecular_weight>  (53) 
597.499

>  <_formula>  (53) 
C26H29O16

>  <_logP>  (53) 
-1.4491000000000003

>  <_molecular_wt_calculated>  (53) 
597.5020000000014

>  <_havy_atom_count>  (53) 
42

>  <_hydrogen_acceptors>  (53) 
15

>  <_hydrogen_donors>  (53) 
11

>  <_rotatable_bonds>  (53) 
17

>  <_amide_bonds>  (53) 
0

>  <_ring_count>  (53) 
5

$$$$
Cyanidin 3-O-xylosyl-rutinoside
     RDKit          3D

 90 95  0  0  0  0  0  0  0  0999 V2000
    6.1701   -0.8468    2.8836 C   0  0  0  0  0  0  0  0  0  0  0  0
    5.4399    0.0660    1.8918 C   0  0  0  0  0  0  0  0  0  0  0  0
    4.5444   -0.7147    1.1010 O   0  0  0  0  0  0  0  0  0  0  0  0
    4.8803   -0.8530   -0.2745 C   0  0  0  0  0  0  0  0  0  0  0  0
    4.4084    0.2672   -1.0099 O   0  0  0  0  0  0  0  0  0  0  0  0
    3.1133    0.0552   -1.5462 C   0  0  0  0  0  0  0  0  0  0  0  0
    2.0043    0.2129   -0.4887 C   0  0  0  0  0  0  0  0  0  0  0  0
    0.7575   -0.0341   -1.1203 O   0  0  0  0  0  0  0  0  0  0  0  0
   -0.3025    0.2245   -0.2212 C   0  0  0  0  0  0  0  0  0  0  0  0
   -1.5043   -0.3475   -0.7287 O   0  0  0  0  0  0  0  0  0  0  0  0
   -1.7499   -1.7173   -0.9091 C   0  0  0  0  0  0  0  0  0  0  0  0
   -0.7767   -2.6944   -0.6468 C   0  0  0  0  0  0  0  0  0  0  0  0
   -1.0873   -4.0487   -0.8133 C   0  0  0  0  0  0  0  0  0  0  0  0
   -0.1455   -5.0660   -0.5659 C   0  0  0  0  0  0  0  0  0  0  0  0
    1.1471   -4.7475   -0.1477 O   0  0  0  0  0  0  0  0  0  0  0  0
   -0.5134   -6.4080   -0.7428 C   0  0  0  0  0  0  0  0  0  0  0  0
   -1.8058   -6.7411   -1.1611 C   0  0  0  0  0  0  0  0  0  0  0  0
   -2.1487   -8.0809   -1.3294 O   0  0  0  0  0  0  0  0  0  0  0  0
   -2.7429   -5.7293   -1.4071 C   0  0  0  0  0  0  0  0  0  0  0  0
   -2.3903   -4.3871   -1.2363 C   0  0  0  0  0  0  0  0  0  0  0  0
   -3.2879   -3.4364   -1.4731 O   0  0  0  0  0  3  0  0  0  0  0  0
   -3.0247   -2.1380   -1.3399 C   0  0  0  0  0  0  0  0  0  0  0  0
   -4.1088   -1.1675   -1.6138 C   0  0  0  0  0  0  0  0  0  0  0  0
   -5.4021   -1.4230   -1.1328 C   0  0  0  0  0  0  0  0  0  0  0  0
   -6.4286   -0.4973   -1.3385 C   0  0  0  0  0  0  0  0  0  0  0  0
   -6.1784    0.6906   -2.0378 C   0  0  0  0  0  0  0  0  0  0  0  0
   -7.1957    1.6229   -2.2327 O   0  0  0  0  0  0  0  0  0  0  0  0
   -4.8983    0.9427   -2.5462 C   0  0  0  0  0  0  0  0  0  0  0  0
   -4.6537    2.1218   -3.2477 O   0  0  0  0  0  0  0  0  0  0  0  0
   -3.8705    0.0106   -2.3453 C   0  0  0  0  0  0  0  0  0  0  0  0
   -0.5033    1.7467   -0.0847 C   0  0  0  0  0  0  0  0  0  0  0  0
   -1.1150    2.0115    1.1697 O   0  0  0  0  0  0  0  0  0  0  0  0
   -1.9521    3.1593    1.1185 C   0  0  0  0  0  0  0  0  0  0  0  0
   -1.8315    3.8767    2.3426 O   0  0  0  0  0  0  0  0  0  0  0  0
   -2.7061    3.3719    3.3312 C   0  0  0  0  0  0  0  0  0  0  0  0
   -4.1703    3.7142    2.9888 C   0  0  0  0  0  0  0  0  0  0  0  0
   -4.4935    4.9679    3.5330 O   0  0  0  0  0  0  0  0  0  0  0  0
   -4.3913    3.7347    1.4553 C   0  0  0  0  0  0  0  0  0  0  0  0
   -5.7132    3.3759    1.1449 O   0  0  0  0  0  0  0  0  0  0  0  0
   -3.4222    2.7698    0.7607 C   0  0  0  0  0  0  0  0  0  0  0  0
   -3.7089    1.4562    1.1764 O   0  0  0  0  0  0  0  0  0  0  0  0
    0.8538    2.5021   -0.1927 C   0  0  0  0  0  0  0  0  0  0  0  0
    1.0370    3.0323   -1.4838 O   0  0  0  0  0  0  0  0  0  0  0  0
    2.0590    1.6155    0.2047 C   0  0  0  0  0  0  0  0  0  0  0  0
    2.0621    1.4319    1.5989 O   0  0  0  0  0  0  0  0  0  0  0  0
    6.3900   -1.0312   -0.5028 C   0  0  0  0  0  0  0  0  0  0  0  0
    6.6314   -1.2519   -1.8697 O   0  0  0  0  0  0  0  0  0  0  0  0
    7.1977    0.1825    0.0240 C   0  0  0  0  0  0  0  0  0  0  0  0
    7.5522    1.0480   -1.0283 O   0  0  0  0  0  0  0  0  0  0  0  0
    6.4263    0.9717    1.1097 C   0  0  0  0  0  0  0  0  0  0  0  0
    5.7062    2.0399    0.5433 O   0  0  0  0  0  0  0  0  0  0  0  0
    6.8549   -1.5443    2.3608 H   0  0  0  0  0  0  0  0  0  0  0  0
    5.4302   -1.4442    3.4576 H   0  0  0  0  0  0  0  0  0  0  0  0
    6.7595   -0.2406    3.6041 H   0  0  0  0  0  0  0  0  0  0  0  0
    4.8108    0.7425    2.5113 H   0  0  0  0  0  0  0  0  0  0  0  0
    4.4190   -1.8071   -0.6222 H   0  0  0  0  0  0  0  0  0  0  0  0
    2.9506    0.8155   -2.3388 H   0  0  0  0  0  0  0  0  0  0  0  0
    3.0285   -0.9297   -2.0598 H   0  0  0  0  0  0  0  0  0  0  0  0
    2.1664   -0.5864    0.2688 H   0  0  0  0  0  0  0  0  0  0  0  0
   -0.1048   -0.2234    0.7831 H   0  0  0  0  0  0  0  0  0  0  0  0
    0.2086   -2.4075   -0.3067 H   0  0  0  0  0  0  0  0  0  0  0  0
    1.8386   -5.4653    0.0347 H   0  0  0  0  0  0  0  0  0  0  0  0
    0.2061   -7.1951   -0.5545 H   0  0  0  0  0  0  0  0  0  0  0  0
   -3.0760   -8.3564   -1.6313 H   0  0  0  0  0  0  0  0  0  0  0  0
   -3.7442   -5.9851   -1.7311 H   0  0  0  0  0  0  0  0  0  0  0  0
   -5.6112   -2.3279   -0.5752 H   0  0  0  0  0  0  0  0  0  0  0  0
   -7.4172   -0.7009   -0.9471 H   0  0  0  0  0  0  0  0  0  0  0  0
   -8.1313    1.4689   -1.8752 H   0  0  0  0  0  0  0  0  0  0  0  0
   -3.7361    2.3362   -3.6204 H   0  0  0  0  0  0  0  0  0  0  0  0
   -2.8912    0.2071   -2.7631 H   0  0  0  0  0  0  0  0  0  0  0  0
   -1.1572    2.0620   -0.9357 H   0  0  0  0  0  0  0  0  0  0  0  0
   -1.6131    3.8809    0.3370 H   0  0  0  0  0  0  0  0  0  0  0  0
   -2.4352    3.8210    4.3105 H   0  0  0  0  0  0  0  0  0  0  0  0
   -2.5760    2.2714    3.4486 H   0  0  0  0  0  0  0  0  0  0  0  0
   -4.8130    2.9286    3.4524 H   0  0  0  0  0  0  0  0  0  0  0  0
   -5.4842    5.0176    3.5707 H   0  0  0  0  0  0  0  0  0  0  0  0
   -4.1812    4.7587    1.0624 H   0  0  0  0  0  0  0  0  0  0  0  0
   -6.2798    4.1649    1.3491 H   0  0  0  0  0  0  0  0  0  0  0  0
   -3.5679    2.8612   -0.3428 H   0  0  0  0  0  0  0  0  0  0  0  0
   -3.4753    0.8553    0.4246 H   0  0  0  0  0  0  0  0  0  0  0  0
    0.8332    3.3731    0.4985 H   0  0  0  0  0  0  0  0  0  0  0  0
    0.9722    2.2879   -2.1358 H   0  0  0  0  0  0  0  0  0  0  0  0
    2.9909    2.1551   -0.0860 H   0  0  0  0  0  0  0  0  0  0  0  0
    2.4161    2.2671    2.0030 H   0  0  0  0  0  0  0  0  0  0  0  0
    6.6970   -1.9408    0.0649 H   0  0  0  0  0  0  0  0  0  0  0  0
    7.5357   -1.6563   -1.9387 H   0  0  0  0  0  0  0  0  0  0  0  0
    8.1264   -0.2148    0.5010 H   0  0  0  0  0  0  0  0  0  0  0  0
    8.3920    0.6983   -1.4264 H   0  0  0  0  0  0  0  0  0  0  0  0
    7.1669    1.3872    1.8355 H   0  0  0  0  0  0  0  0  0  0  0  0
    6.3340    2.8039    0.4523 H   0  0  0  0  0  0  0  0  0  0  0  0
  1  2  1  0
  2  3  1  0
  3  4  1  0
  4  5  1  0
  5  6  1  0
  6  7  1  0
  7  8  1  0
  8  9  1  0
  9 10  1  0
 10 11  1  0
 11 12  2  0
 12 13  1  0
 13 14  2  0
 14 15  1  0
 14 16  1  0
 16 17  2  0
 17 18  1  0
 17 19  1  0
 19 20  2  0
 20 21  1  0
 21 22  2  0
 22 23  1  0
 23 24  2  0
 24 25  1  0
 25 26  2  0
 26 27  1  0
 26 28  1  0
 28 29  1  0
 28 30  2  0
  9 31  1  0
 31 32  1  0
 32 33  1  0
 33 34  1  0
 34 35  1  0
 35 36  1  0
 36 37  1  0
 36 38  1  0
 38 39  1  0
 38 40  1  0
 40 41  1  0
 31 42  1  0
 42 43  1  0
 42 44  1  0
 44 45  1  0
  4 46  1  0
 46 47  1  0
 46 48  1  0
 48 49  1  0
 48 50  1  0
 50 51  1  0
 50  2  1  0
 44  7  1  0
 22 11  1  0
 30 23  1  0
 40 33  1  0
 20 13  1  0
  1 52  1  0
  1 53  1  0
  1 54  1  0
  2 55  1  0
  4 56  1  0
  6 57  1  0
  6 58  1  0
  7 59  1  0
  9 60  1  0
 12 61  1  0
 15 62  1  0
 16 63  1  0
 18 64  1  0
 19 65  1  0
 24 66  1  0
 25 67  1  0
 27 68  1  0
 29 69  1  0
 30 70  1  0
 31 71  1  0
 33 72  1  0
 35 73  1  0
 35 74  1  0
 36 75  1  0
 37 76  1  0
 38 77  1  0
 39 78  1  0
 40 79  1  0
 41 80  1  0
 42 81  1  0
 43 82  1  0
 44 83  1  0
 45 84  1  0
 46 85  1  0
 47 86  1  0
 48 87  1  0
 49 88  1  0
 50 89  1  0
 51 90  1  0
M  CHG  1  21   1
M  END
>  <LIG_ID>  (54) 
53

>  <_smiles>  (54) 
CC1OC(OCC2OC(OC3=CC4=C(O)C=C(O)C=C4[O+]=C3C3=CC=C(O)C(O)=C3)C(OC3OCC(O)C(O)C3O)C(O)C2O)C(O)C(O)C1O

>  <_name>  (54) 
Cyanidin 3-O-xylosyl-rutinoside

>  <_molecular_weight>  (54) 
727.641

>  <_formula>  (54) 
C32H39O19

>  <_logP>  (54) 
-2.3028999999999997

>  <_molecular_wt_calculated>  (54) 
727.6450000000018

>  <_havy_atom_count>  (54) 
51

>  <_hydrogen_acceptors>  (54) 
18

>  <_hydrogen_donors>  (54) 
12

>  <_rotatable_bonds>  (54) 
21

>  <_amide_bonds>  (54) 
0

>  <_ring_count>  (54) 
6

$$$$
Vitisin A
     RDKit          3D

 65 69  0  0  0  0  0  0  0  0999 V2000
    2.3297   -3.9082   -3.2043 C   0  0  0  0  0  0  0  0  0  0  0  0
    2.7512   -4.1858   -1.8728 O   0  0  0  0  0  0  0  0  0  0  0  0
    2.7020   -3.2646   -0.8143 C   0  0  0  0  0  0  0  0  0  0  0  0
    2.2501   -1.9449   -0.9930 C   0  0  0  0  0  0  0  0  0  0  0  0
    2.1905   -1.0567    0.0921 C   0  0  0  0  0  0  0  0  0  0  0  0
    2.6298   -1.4838    1.3530 C   0  0  0  0  0  0  0  0  0  0  0  0
    3.0895   -2.7995    1.5468 C   0  0  0  0  0  0  0  0  0  0  0  0
    3.5189   -3.2575    2.8029 O   0  0  0  0  0  0  0  0  0  0  0  0
    3.5332   -2.4703    3.9894 C   0  0  0  0  0  0  0  0  0  0  0  0
    3.1186   -3.6865    0.4557 C   0  0  0  0  0  0  0  0  0  0  0  0
    3.5629   -4.9999    0.6168 O   0  0  0  0  0  0  0  0  0  0  0  0
    1.6847    0.3263   -0.0718 C   0  0  0  0  0  0  0  0  0  0  0  0
    2.3218    1.3070    0.5692 O   0  0  0  0  0  3  0  0  0  0  0  0
    1.9651    2.5830    0.4771 C   0  0  0  0  0  0  0  0  0  0  0  0
    0.8856    2.9532   -0.3409 C   0  0  0  0  0  0  0  0  0  0  0  0
    0.5134    4.2982   -0.4612 C   0  0  0  0  0  0  0  0  0  0  0  0
   -0.5592    4.6448   -1.2925 O   0  0  0  0  0  0  0  0  0  0  0  0
   -1.2581    3.6806   -2.0396 C   0  0  0  0  0  0  0  0  0  0  0  0
   -0.9145    2.3821   -1.9484 C   0  0  0  0  0  0  0  0  0  0  0  0
    0.1798    1.9676   -1.0369 C   0  0  0  0  0  0  0  0  0  0  0  0
    0.5462    0.6206   -0.8609 C   0  0  0  0  0  0  0  0  0  0  0  0
   -0.1967   -0.4093   -1.4560 O   0  0  0  0  0  0  0  0  0  0  0  0
   -1.4371   -0.9026   -0.9352 C   0  0  2  0  0  0  0  0  0  0  0  0
   -2.3056    0.1716   -0.6311 O   0  0  0  0  0  0  0  0  0  0  0  0
   -3.6387   -0.2967   -0.4926 C   0  0  2  0  0  0  0  0  0  0  0  0
   -4.5193    0.8735   -0.0381 C   0  0  0  0  0  0  0  0  0  0  0  0
   -4.0733    1.3721    1.1928 O   0  0  0  0  0  0  0  0  0  0  0  0
   -3.7514   -1.5195    0.4800 C   0  0  1  0  0  0  0  0  0  0  0  0
   -4.0291   -2.6874   -0.2503 O   0  0  0  0  0  0  0  0  0  0  0  0
   -2.4404   -1.7286    1.2676 C   0  0  2  0  0  0  0  0  0  0  0  0
   -2.2726   -0.6846    2.1942 O   0  0  0  0  0  0  0  0  0  0  0  0
   -1.2108   -1.7698    0.3253 C   0  0  1  0  0  0  0  0  0  0  0  0
   -0.9404   -3.0910   -0.0697 O   0  0  0  0  0  0  0  0  0  0  0  0
   -2.3566    4.1276   -2.9137 C   0  0  0  0  0  0  0  0  0  0  0  0
   -2.6642    5.4825   -2.9857 O   0  0  0  0  0  0  0  0  0  0  0  0
   -3.0227    3.3003   -3.5936 O   0  0  0  0  0  0  0  0  0  0  0  0
    1.2148    5.2788    0.2476 C   0  0  0  0  0  0  0  0  0  0  0  0
    2.2904    4.9169    1.0709 C   0  0  0  0  0  0  0  0  0  0  0  0
    2.9801    5.9043    1.7708 O   0  0  0  0  0  0  0  0  0  0  0  0
    2.6657    3.5675    1.1834 C   0  0  0  0  0  0  0  0  0  0  0  0
    2.9454   -3.0919   -3.6375 H   0  0  0  0  0  0  0  0  0  0  0  0
    2.4618   -4.8188   -3.8235 H   0  0  0  0  0  0  0  0  0  0  0  0
    1.2558   -3.6245   -3.2134 H   0  0  0  0  0  0  0  0  0  0  0  0
    1.9580   -1.6018   -1.9754 H   0  0  0  0  0  0  0  0  0  0  0  0
    2.5890   -0.7923    2.1842 H   0  0  0  0  0  0  0  0  0  0  0  0
    2.5038   -2.1359    4.2382 H   0  0  0  0  0  0  0  0  0  0  0  0
    4.2003   -1.5923    3.8574 H   0  0  0  0  0  0  0  0  0  0  0  0
    3.9186   -3.0858    4.8278 H   0  0  0  0  0  0  0  0  0  0  0  0
    3.8753   -5.3605    1.5103 H   0  0  0  0  0  0  0  0  0  0  0  0
   -1.4258    1.6382   -2.5463 H   0  0  0  0  0  0  0  0  0  0  0  0
   -1.8776   -1.5381   -1.7400 H   0  0  0  0  0  0  0  0  0  0  0  0
   -4.0195   -0.5888   -1.4991 H   0  0  0  0  0  0  0  0  0  0  0  0
   -4.4716    1.6802   -0.8042 H   0  0  0  0  0  0  0  0  0  0  0  0
   -5.5770    0.5366    0.0480 H   0  0  0  0  0  0  0  0  0  0  0  0
   -4.6822    2.1210    1.4232 H   0  0  0  0  0  0  0  0  0  0  0  0
   -4.5718   -1.3643    1.2207 H   0  0  0  0  0  0  0  0  0  0  0  0
   -4.9837   -2.6367   -0.5192 H   0  0  0  0  0  0  0  0  0  0  0  0
   -2.5009   -2.6943    1.8239 H   0  0  0  0  0  0  0  0  0  0  0  0
   -2.8976   -0.8603    2.9456 H   0  0  0  0  0  0  0  0  0  0  0  0
   -0.3418   -1.3706    0.8922 H   0  0  0  0  0  0  0  0  0  0  0  0
   -0.4639   -3.5269    0.6847 H   0  0  0  0  0  0  0  0  0  0  0  0
   -3.4160    5.8141   -3.5782 H   0  0  0  0  0  0  0  0  0  0  0  0
    0.9270    6.3187    0.1581 H   0  0  0  0  0  0  0  0  0  0  0  0
    3.7622    5.6773    2.3738 H   0  0  0  0  0  0  0  0  0  0  0  0
    3.4987    3.2862    1.8155 H   0  0  0  0  0  0  0  0  0  0  0  0
  1  2  1  0
  2  3  1  0
  3  4  2  0
  4  5  1  0
  5  6  2  0
  6  7  1  0
  7  8  1  0
  8  9  1  0
  7 10  2  0
 10 11  1  0
  5 12  1  0
 12 13  2  0
 13 14  1  0
 14 15  2  0
 15 16  1  0
 16 17  1  0
 17 18  1  0
 18 19  2  0
 19 20  1  0
 20 21  2  0
 21 22  1  0
 22 23  1  0
 23 24  1  0
 24 25  1  0
 25 26  1  0
 26 27  1  0
 25 28  1  0
 28 29  1  0
 28 30  1  0
 30 31  1  0
 30 32  1  0
 32 33  1  0
 18 34  1  0
 34 35  1  0
 34 36  2  0
 16 37  2  0
 37 38  1  0
 38 39  1  0
 38 40  2  0
 10  3  1  0
 21 12  1  0
 32 23  1  0
 40 14  1  0
 20 15  1  0
  1 41  1  0
  1 42  1  0
  1 43  1  0
  4 44  1  0
  6 45  1  0
  9 46  1  0
  9 47  1  0
  9 48  1  0
 11 49  1  0
 19 50  1  0
 23 51  1  6
 25 52  1  6
 26 53  1  0
 26 54  1  0
 27 55  1  0
 28 56  1  1
 29 57  1  0
 30 58  1  1
 31 59  1  0
 32 60  1  1
 33 61  1  0
 35 62  1  0
 37 63  1  0
 39 64  1  0
 40 65  1  0
M  CHG  1  13   1
M  END
>  <LIG_ID>  (55) 
54

>  <_smiles>  (55) 
COC1=CC(=CC(OC)=C1O)C1=[O+]C2=C3C(OC(=CC3=C1O[C@@H]1O[C@H](CO)[C@@H](O)[C@H](O)[C@H]1O)C(O)=O)=CC(O)=C2

>  <_name>  (55) 
Vitisin A

>  <_molecular_weight>  (55) 
561.468

>  <_formula>  (55) 
C26H25O14

>  <_logP>  (55) 
0.8058999999999996

>  <_molecular_wt_calculated>  (55) 
561.4720000000013

>  <_havy_atom_count>  (55) 
40

>  <_hydrogen_acceptors>  (55) 
13

>  <_hydrogen_donors>  (55) 
7

>  <_rotatable_bonds>  (55) 
15

>  <_amide_bonds>  (55) 
0

>  <_ring_count>  (55) 
5

$$$$
Delphinidin 3-O-(6''-p-coumaroyl-glucoside)
     RDKit          3D

 71 75  0  0  0  0  0  0  0  0999 V2000
    2.6073    1.0569   -2.2398 O   0  0  0  0  0  0  0  0  0  0  0  0
    1.2659    1.2480   -1.8675 C   0  0  2  0  0  0  0  0  0  0  0  0
    1.1325    1.1680   -0.3279 C   0  0  1  0  0  0  0  0  0  0  0  0
    1.9145    2.2990    0.3625 C   0  0  0  0  0  0  0  0  0  0  0  0
    3.3212    2.1652    0.1615 O   0  0  0  0  0  0  0  0  0  0  0  0
    4.1101    1.2211    0.8276 C   0  0  0  0  0  0  0  0  0  0  0  0
    3.6069    0.4764    1.7141 O   0  0  0  0  0  0  0  0  0  0  0  0
    5.5366    1.1184    0.4796 C   0  0  0  0  0  0  0  0  0  0  0  0
    6.3510    0.2199    1.0515 C   0  0  0  0  0  0  0  0  0  0  0  0
    7.7890    0.0786    0.7140 C   0  0  0  0  0  0  0  0  0  0  0  0
    8.4374   -1.1287    1.0256 C   0  0  0  0  0  0  0  0  0  0  0  0
    9.7935   -1.3041    0.7344 C   0  0  0  0  0  0  0  0  0  0  0  0
   10.5244   -0.2701    0.1370 C   0  0  0  0  0  0  0  0  0  0  0  0
   11.8759   -0.4334   -0.1582 O   0  0  0  0  0  0  0  0  0  0  0  0
    9.8933    0.9401   -0.1628 C   0  0  0  0  0  0  0  0  0  0  0  0
    8.5368    1.1195    0.1260 C   0  0  0  0  0  0  0  0  0  0  0  0
   -0.2286    1.2905    0.0501 O   0  0  0  0  0  0  0  0  0  0  0  0
   -0.9851    0.1868   -0.4131 C   0  0  1  0  0  0  0  0  0  0  0  0
   -2.3069    0.3216    0.1148 O   0  0  0  0  0  0  0  0  0  0  0  0
   -3.2895   -0.6822    0.2108 C   0  0  0  0  0  0  0  0  0  0  0  0
   -2.9982   -2.0482    0.0499 C   0  0  0  0  0  0  0  0  0  0  0  0
   -4.0072   -3.0118    0.2147 C   0  0  0  0  0  0  0  0  0  0  0  0
   -3.7867   -4.4069    0.0666 C   0  0  0  0  0  0  0  0  0  0  0  0
   -2.5484   -4.9553   -0.2810 O   0  0  0  0  0  0  0  0  0  0  0  0
   -4.8485   -5.2968    0.2709 C   0  0  0  0  0  0  0  0  0  0  0  0
   -6.1220   -4.8290    0.6131 C   0  0  0  0  0  0  0  0  0  0  0  0
   -7.1748   -5.7190    0.8145 O   0  0  0  0  0  0  0  0  0  0  0  0
   -6.3434   -3.4591    0.7536 C   0  0  0  0  0  0  0  0  0  0  0  0
   -5.2999   -2.5509    0.5569 C   0  0  0  0  0  0  0  0  0  0  0  0
   -5.5405   -1.2527    0.6937 O   0  0  0  0  0  3  0  0  0  0  0  0
   -4.6130   -0.3156    0.5238 C   0  0  0  0  0  0  0  0  0  0  0  0
   -5.0149    1.1002    0.6845 C   0  0  0  0  0  0  0  0  0  0  0  0
   -4.5939    2.0857   -0.2249 C   0  0  0  0  0  0  0  0  0  0  0  0
   -4.9987    3.4179   -0.0674 C   0  0  0  0  0  0  0  0  0  0  0  0
   -4.5707    4.3940   -0.9657 O   0  0  0  0  0  0  0  0  0  0  0  0
   -5.8411    3.7740    0.9935 C   0  0  0  0  0  0  0  0  0  0  0  0
   -6.2309    5.1061    1.1365 O   0  0  0  0  0  0  0  0  0  0  0  0
   -6.2856    2.7910    1.8939 C   0  0  0  0  0  0  0  0  0  0  0  0
   -7.1310    3.1395    2.9462 O   0  0  0  0  0  0  0  0  0  0  0  0
   -5.8772    1.4598    1.7313 C   0  0  0  0  0  0  0  0  0  0  0  0
   -1.0353    0.2072   -1.9554 C   0  0  2  0  0  0  0  0  0  0  0  0
   -1.7666   -0.8939   -2.4278 O   0  0  0  0  0  0  0  0  0  0  0  0
    0.3928    0.1607   -2.5223 C   0  0  1  0  0  0  0  0  0  0  0  0
    0.3443    0.3579   -3.9124 O   0  0  0  0  0  0  0  0  0  0  0  0
    2.7350    1.5161   -3.1106 H   0  0  0  0  0  0  0  0  0  0  0  0
    0.9087    2.2521   -2.2021 H   0  0  0  0  0  0  0  0  0  0  0  0
    1.5471    0.1986    0.0342 H   0  0  0  0  0  0  0  0  0  0  0  0
    1.6916    2.3054    1.4522 H   0  0  0  0  0  0  0  0  0  0  0  0
    1.5882    3.2790   -0.0466 H   0  0  0  0  0  0  0  0  0  0  0  0
    5.9024    1.7856   -0.2881 H   0  0  0  0  0  0  0  0  0  0  0  0
    5.9388   -0.4770    1.7724 H   0  0  0  0  0  0  0  0  0  0  0  0
    7.8907   -1.9418    1.4880 H   0  0  0  0  0  0  0  0  0  0  0  0
   10.2748   -2.2436    0.9746 H   0  0  0  0  0  0  0  0  0  0  0  0
   12.3622   -1.2982    0.0482 H   0  0  0  0  0  0  0  0  0  0  0  0
   10.4571    1.7466   -0.6143 H   0  0  0  0  0  0  0  0  0  0  0  0
    8.0914    2.0800   -0.0918 H   0  0  0  0  0  0  0  0  0  0  0  0
   -0.5284   -0.7556   -0.0375 H   0  0  0  0  0  0  0  0  0  0  0  0
   -1.9937   -2.3466   -0.1828 H   0  0  0  0  0  0  0  0  0  0  0  0
   -1.7177   -4.4166   -0.4776 H   0  0  0  0  0  0  0  0  0  0  0  0
   -4.6806   -6.3610    0.1598 H   0  0  0  0  0  0  0  0  0  0  0  0
   -7.0480   -6.7199    0.7201 H   0  0  0  0  0  0  0  0  0  0  0  0
   -7.3304   -3.0985    1.0165 H   0  0  0  0  0  0  0  0  0  0  0  0
   -3.9707    1.8205   -1.0697 H   0  0  0  0  0  0  0  0  0  0  0  0
   -3.9606    4.1688   -1.7429 H   0  0  0  0  0  0  0  0  0  0  0  0
   -6.8393    5.4120    1.8863 H   0  0  0  0  0  0  0  0  0  0  0  0
   -7.4660    2.4501    3.6091 H   0  0  0  0  0  0  0  0  0  0  0  0
   -6.2228    0.7078    2.4306 H   0  0  0  0  0  0  0  0  0  0  0  0
   -1.5287    1.1577   -2.2720 H   0  0  0  0  0  0  0  0  0  0  0  0
   -2.0814   -0.6622   -3.3404 H   0  0  0  0  0  0  0  0  0  0  0  0
    0.8263   -0.8431   -2.2926 H   0  0  0  0  0  0  0  0  0  0  0  0
    1.1592   -0.0623   -4.2932 H   0  0  0  0  0  0  0  0  0  0  0  0
  1  2  1  0
  2  3  1  0
  3  4  1  0
  4  5  1  0
  5  6  1  0
  6  7  2  0
  6  8  1  0
  8  9  2  0
  9 10  1  0
 10 11  2  0
 11 12  1  0
 12 13  2  0
 13 14  1  0
 13 15  1  0
 15 16  2  0
  3 17  1  0
 17 18  1  0
 18 19  1  0
 19 20  1  0
 20 21  2  0
 21 22  1  0
 22 23  2  0
 23 24  1  0
 23 25  1  0
 25 26  2  0
 26 27  1  0
 26 28  1  0
 28 29  2  0
 29 30  1  0
 30 31  2  0
 31 32  1  0
 32 33  2  0
 33 34  1  0
 34 35  1  0
 34 36  2  0
 36 37  1  0
 36 38  1  0
 38 39  1  0
 38 40  2  0
 18 41  1  0
 41 42  1  0
 41 43  1  0
 43 44  1  0
 43  2  1  0
 16 10  1  0
 31 20  1  0
 40 32  1  0
 29 22  1  0
  1 45  1  0
  2 46  1  6
  3 47  1  1
  4 48  1  0
  4 49  1  0
  8 50  1  0
  9 51  1  0
 11 52  1  0
 12 53  1  0
 14 54  1  0
 15 55  1  0
 16 56  1  0
 18 57  1  6
 21 58  1  0
 24 59  1  0
 25 60  1  0
 27 61  1  0
 28 62  1  0
 33 63  1  0
 35 64  1  0
 37 65  1  0
 39 66  1  0
 40 67  1  0
 41 68  1  1
 42 69  1  0
 43 70  1  6
 44 71  1  0
M  CHG  1  30   1
M  END
>  <LIG_ID>  (56) 
55

>  <_smiles>  (56) 
O[C@@H]1[C@@H](COC(=O)\C=C\C2=CC=C(O)C=C2)O[C@@H](OC2=CC3=C(O)C=C(O)C=C3[O+]=C2C2=CC(O)=C(O)C(O)=C2)[C@H](O)[C@H]1O

>  <_name>  (56) 
Delphinidin 3-O-(6''-p-coumaroyl-glucoside)

>  <_molecular_weight>  (56) 
611.527

>  <_formula>  (56) 
C30H27O14

>  <_logP>  (56) 
2.0575000000000014

>  <_molecular_wt_calculated>  (56) 
611.5320000000014

>  <_havy_atom_count>  (56) 
44

>  <_hydrogen_acceptors>  (56) 
13

>  <_hydrogen_donors>  (56) 
9

>  <_rotatable_bonds>  (56) 
16

>  <_amide_bonds>  (56) 
0

>  <_ring_count>  (56) 
5

$$$$
Pigment A
     RDKit          3D

 73 78  0  0  0  0  0  0  0  0999 V2000
    4.4094    1.6857   -3.1827 C   0  0  0  0  0  0  0  0  0  0  0  0
    5.1573    1.3947   -2.0065 O   0  0  0  0  0  0  0  0  0  0  0  0
    4.7110    0.5678   -0.9633 C   0  0  0  0  0  0  0  0  0  0  0  0
    3.4632   -0.0797   -1.0041 C   0  0  0  0  0  0  0  0  0  0  0  0
    3.0391   -0.8824    0.0667 C   0  0  0  0  0  0  0  0  0  0  0  0
    3.8915   -1.0695    1.1635 C   0  0  0  0  0  0  0  0  0  0  0  0
    5.1453   -0.4329    1.2166 C   0  0  0  0  0  0  0  0  0  0  0  0
    6.0125   -0.5927    2.3096 O   0  0  0  0  0  0  0  0  0  0  0  0
    5.7323   -1.3916    3.4546 C   0  0  0  0  0  0  0  0  0  0  0  0
    5.5459    0.3897    0.1484 C   0  0  0  0  0  0  0  0  0  0  0  0
    6.7805    1.0405    0.1744 O   0  0  0  0  0  0  0  0  0  0  0  0
    1.7205   -1.5565    0.0477 C   0  0  0  0  0  0  0  0  0  0  0  0
    1.6506   -2.8164    0.4814 O   0  0  0  0  0  3  0  0  0  0  0  0
    0.5184   -3.5121    0.5032 C   0  0  0  0  0  0  0  0  0  0  0  0
   -0.6762   -2.9233    0.0577 C   0  0  0  0  0  0  0  0  0  0  0  0
   -1.8785   -3.6391    0.0882 C   0  0  0  0  0  0  0  0  0  0  0  0
   -3.0599   -3.0193   -0.3395 O   0  0  0  0  0  0  0  0  0  0  0  0
   -3.0806   -1.6867   -0.7936 C   0  0  0  0  0  0  0  0  0  0  0  0
   -1.9299   -0.9876   -0.8541 C   0  0  0  0  0  0  0  0  0  0  0  0
   -0.6619   -1.6066   -0.4053 C   0  0  0  0  0  0  0  0  0  0  0  0
    0.5486   -0.8985   -0.3969 C   0  0  0  0  0  0  0  0  0  0  0  0
    0.5756    0.4402   -0.7982 O   0  0  0  0  0  0  0  0  0  0  0  0
    0.6179    1.5066    0.1462 C   0  0  2  0  0  0  0  0  0  0  0  0
   -0.6269    1.5480    0.8282 O   0  0  0  0  0  0  0  0  0  0  0  0
   -0.7383    2.7281    1.5976 C   0  0  2  0  0  0  0  0  0  0  0  0
   -1.8789    2.5590    2.6079 C   0  0  0  0  0  0  0  0  0  0  0  0
   -3.0664    2.2085    1.9502 O   0  0  0  0  0  0  0  0  0  0  0  0
   -0.9724    3.9505    0.6733 C   0  0  1  0  0  0  0  0  0  0  0  0
   -0.4772    5.1009    1.3112 O   0  0  0  0  0  0  0  0  0  0  0  0
   -0.2739    3.7605   -0.7019 C   0  0  2  0  0  0  0  0  0  0  0  0
   -1.1793    3.2890   -1.6716 O   0  0  0  0  0  0  0  0  0  0  0  0
    0.9520    2.8294   -0.6068 C   0  0  1  0  0  0  0  0  0  0  0  0
    1.9875    3.5090    0.0573 O   0  0  0  0  0  0  0  0  0  0  0  0
   -4.3780   -1.0956   -1.2064 C   0  0  0  0  0  0  0  0  0  0  0  0
   -5.3954   -1.9362   -1.6907 C   0  0  0  0  0  0  0  0  0  0  0  0
   -6.6317   -1.4074   -2.0736 C   0  0  0  0  0  0  0  0  0  0  0  0
   -6.8730   -0.0321   -1.9672 C   0  0  0  0  0  0  0  0  0  0  0  0
   -8.1010    0.5055   -2.3459 O   0  0  0  0  0  0  0  0  0  0  0  0
   -5.8735    0.8101   -1.4726 C   0  0  0  0  0  0  0  0  0  0  0  0
   -4.6355    0.2858   -1.0896 C   0  0  0  0  0  0  0  0  0  0  0  0
   -1.8884   -4.9585    0.5518 C   0  0  0  0  0  0  0  0  0  0  0  0
   -0.6993   -5.5578    0.9920 C   0  0  0  0  0  0  0  0  0  0  0  0
   -0.7241   -6.8723    1.4520 O   0  0  0  0  0  0  0  0  0  0  0  0
    0.5041   -4.8320    0.9687 C   0  0  0  0  0  0  0  0  0  0  0  0
    4.9986    2.3702   -3.8265 H   0  0  0  0  0  0  0  0  0  0  0  0
    3.4548    2.1848   -2.9144 H   0  0  0  0  0  0  0  0  0  0  0  0
    4.2079    0.7517   -3.7485 H   0  0  0  0  0  0  0  0  0  0  0  0
    2.8267    0.0267   -1.8713 H   0  0  0  0  0  0  0  0  0  0  0  0
    3.5636   -1.6982    1.9808 H   0  0  0  0  0  0  0  0  0  0  0  0
    5.5880   -2.4512    3.1551 H   0  0  0  0  0  0  0  0  0  0  0  0
    4.8259   -1.0125    3.9723 H   0  0  0  0  0  0  0  0  0  0  0  0
    6.5906   -1.3346    4.1549 H   0  0  0  0  0  0  0  0  0  0  0  0
    7.4249    0.9493    0.9505 H   0  0  0  0  0  0  0  0  0  0  0  0
   -1.9146    0.0187   -1.2482 H   0  0  0  0  0  0  0  0  0  0  0  0
    1.4240    1.2864    0.8834 H   0  0  0  0  0  0  0  0  0  0  0  0
    0.1920    2.8874    2.1955 H   0  0  0  0  0  0  0  0  0  0  0  0
   -1.6049    1.7566    3.3292 H   0  0  0  0  0  0  0  0  0  0  0  0
   -2.0226    3.5066    3.1744 H   0  0  0  0  0  0  0  0  0  0  0  0
   -3.7553    2.1130    2.6580 H   0  0  0  0  0  0  0  0  0  0  0  0
   -2.0666    4.0779    0.4928 H   0  0  0  0  0  0  0  0  0  0  0  0
   -0.9019    5.8821    0.8691 H   0  0  0  0  0  0  0  0  0  0  0  0
    0.0806    4.7513   -1.0632 H   0  0  0  0  0  0  0  0  0  0  0  0
   -1.5786    2.4453   -1.3382 H   0  0  0  0  0  0  0  0  0  0  0  0
    1.2852    2.6008   -1.6469 H   0  0  0  0  0  0  0  0  0  0  0  0
    2.8288    3.0234   -0.1502 H   0  0  0  0  0  0  0  0  0  0  0  0
   -5.2308   -3.0025   -1.7849 H   0  0  0  0  0  0  0  0  0  0  0  0
   -7.4014   -2.0679   -2.4522 H   0  0  0  0  0  0  0  0  0  0  0  0
   -8.8460   -0.0788   -2.7069 H   0  0  0  0  0  0  0  0  0  0  0  0
   -6.0590    1.8725   -1.3775 H   0  0  0  0  0  0  0  0  0  0  0  0
   -3.8952    0.9608   -0.6807 H   0  0  0  0  0  0  0  0  0  0  0  0
   -2.8166   -5.5154    0.5744 H   0  0  0  0  0  0  0  0  0  0  0  0
    0.1164   -7.3352    1.7778 H   0  0  0  0  0  0  0  0  0  0  0  0
    1.4227   -5.2917    1.3114 H   0  0  0  0  0  0  0  0  0  0  0  0
  1  2  1  0
  2  3  1  0
  3  4  2  0
  4  5  1  0
  5  6  2  0
  6  7  1  0
  7  8  1  0
  8  9  1  0
  7 10  2  0
 10 11  1  0
  5 12  1  0
 12 13  2  0
 13 14  1  0
 14 15  2  0
 15 16  1  0
 16 17  1  0
 17 18  1  0
 18 19  2  0
 19 20  1  0
 20 21  2  0
 21 22  1  0
 22 23  1  0
 23 24  1  0
 24 25  1  0
 25 26  1  0
 26 27  1  0
 25 28  1  0
 28 29  1  0
 28 30  1  0
 30 31  1  0
 30 32  1  0
 32 33  1  0
 18 34  1  0
 34 35  2  0
 35 36  1  0
 36 37  2  0
 37 38  1  0
 37 39  1  0
 39 40  2  0
 16 41  2  0
 41 42  1  0
 42 43  1  0
 42 44  2  0
 10  3  1  0
 21 12  1  0
 32 23  1  0
 40 34  1  0
 44 14  1  0
 20 15  1  0
  1 45  1  0
  1 46  1  0
  1 47  1  0
  4 48  1  0
  6 49  1  0
  9 50  1  0
  9 51  1  0
  9 52  1  0
 11 53  1  0
 19 54  1  0
 23 55  1  1
 25 56  1  1
 26 57  1  0
 26 58  1  0
 27 59  1  0
 28 60  1  6
 29 61  1  0
 30 62  1  6
 31 63  1  0
 32 64  1  6
 33 65  1  0
 35 66  1  0
 36 67  1  0
 38 68  1  0
 39 69  1  0
 40 70  1  0
 41 71  1  0
 43 72  1  0
 44 73  1  0
M  CHG  1  13   1
M  END
>  <LIG_ID>  (57) 
56

>  <_smiles>  (57) 
COC1=CC(=CC(OC)=C1O)C1=[O+]C2=C3C(OC(=CC3=C1O[C@@H]1O[C@H](CO)[C@@H](O)[C@H](O)[C@H]1O)C1=CC=C(O)C=C1)=CC(O)=C2

>  <_name>  (57) 
Pigment A

>  <_molecular_weight>  (57) 
609.554

>  <_formula>  (57) 
C31H29O13

>  <_logP>  (57) 
2.5841000000000003

>  <_molecular_wt_calculated>  (57) 
609.5600000000014

>  <_havy_atom_count>  (57) 
44

>  <_hydrogen_acceptors>  (57) 
12

>  <_hydrogen_donors>  (57) 
7

>  <_rotatable_bonds>  (57) 
16

>  <_amide_bonds>  (57) 
0

>  <_ring_count>  (57) 
6

$$$$
Cyanidin 3-O-(6''-p-coumaroyl-glucoside)
     RDKit          3D

 70 74  0  0  0  0  0  0  0  0999 V2000
    0.8321    3.5429   -4.9774 O   0  0  0  0  0  0  0  0  0  0  0  0
    0.0927    3.2940   -3.8039 C   0  0  0  0  0  0  0  0  0  0  0  0
    0.9963    2.8264   -2.6170 C   0  0  0  0  0  0  0  0  0  0  0  0
    2.2002    1.9929   -3.0895 C   0  0  0  0  0  0  0  0  0  0  0  0
    2.7588    1.3061   -1.9741 O   0  0  0  0  0  0  0  0  0  0  0  0
    3.6346    0.2262   -2.1028 C   0  0  0  0  0  0  0  0  0  0  0  0
    4.3240    0.0843   -3.1483 O   0  0  0  0  0  0  0  0  0  0  0  0
    3.7172   -0.7817   -1.0343 C   0  0  0  0  0  0  0  0  0  0  0  0
    2.8958   -0.7423    0.0249 C   0  0  0  0  0  0  0  0  0  0  0  0
    2.8439   -1.7808    1.0824 C   0  0  0  0  0  0  0  0  0  0  0  0
    2.1903   -1.4751    2.2886 C   0  0  0  0  0  0  0  0  0  0  0  0
    2.0656   -2.4372    3.2944 C   0  0  0  0  0  0  0  0  0  0  0  0
    2.5820   -3.7215    3.1069 C   0  0  0  0  0  0  0  0  0  0  0  0
    2.4404   -4.6740    4.1133 O   0  0  0  0  0  0  0  0  0  0  0  0
    3.2291   -4.0408    1.9070 C   0  0  0  0  0  0  0  0  0  0  0  0
    3.3572   -3.0809    0.8984 C   0  0  0  0  0  0  0  0  0  0  0  0
    0.3027    2.0400   -1.6536 O   0  0  0  0  0  0  0  0  0  0  0  0
   -1.0467    2.4227   -1.4797 C   0  0  0  0  0  0  0  0  0  0  0  0
   -1.5893    1.7651   -0.3300 O   0  0  0  0  0  0  0  0  0  0  0  0
   -1.3500    0.4335    0.0692 C   0  0  0  0  0  0  0  0  0  0  0  0
   -0.7410   -0.5142   -0.7735 C   0  0  0  0  0  0  0  0  0  0  0  0
   -0.5056   -1.8210   -0.3184 C   0  0  0  0  0  0  0  0  0  0  0  0
    0.1557   -2.8092   -1.0939 C   0  0  0  0  0  0  0  0  0  0  0  0
    0.6763   -2.5615   -2.3676 O   0  0  0  0  0  0  0  0  0  0  0  0
    0.3230   -4.0965   -0.5692 C   0  0  0  0  0  0  0  0  0  0  0  0
   -0.1362   -4.4139    0.7139 C   0  0  0  0  0  0  0  0  0  0  0  0
    0.0477   -5.6915    1.2377 O   0  0  0  0  0  0  0  0  0  0  0  0
   -0.7755   -3.4414    1.4825 C   0  0  0  0  0  0  0  0  0  0  0  0
   -0.9565   -2.1504    0.9801 C   0  0  0  0  0  0  0  0  0  0  0  0
   -1.5476   -1.2380    1.7417 O   0  0  0  0  0  3  0  0  0  0  0  0
   -1.7431    0.0199    1.3573 C   0  0  0  0  0  0  0  0  0  0  0  0
   -2.3818    0.9478    2.3165 C   0  0  0  0  0  0  0  0  0  0  0  0
   -3.4799    0.5112    3.0733 C   0  0  0  0  0  0  0  0  0  0  0  0
   -4.0837    1.3643    4.0004 C   0  0  0  0  0  0  0  0  0  0  0  0
   -3.5883    2.6602    4.1961 C   0  0  0  0  0  0  0  0  0  0  0  0
   -4.1942    3.5102    5.1200 O   0  0  0  0  0  0  0  0  0  0  0  0
   -2.4743    3.0979    3.4602 C   0  0  0  0  0  0  0  0  0  0  0  0
   -1.9480    4.3765    3.6418 O   0  0  0  0  0  0  0  0  0  0  0  0
   -1.8730    2.2412    2.5311 C   0  0  0  0  0  0  0  0  0  0  0  0
   -1.8960    2.1098   -2.7350 C   0  0  0  0  0  0  0  0  0  0  0  0
   -3.0112    2.9662   -2.7421 O   0  0  0  0  0  0  0  0  0  0  0  0
   -1.0527    2.2786   -4.0276 C   0  0  0  0  0  0  0  0  0  0  0  0
   -1.8517    2.6295   -5.1318 O   0  0  0  0  0  0  0  0  0  0  0  0
    0.9731    2.6810   -5.4482 H   0  0  0  0  0  0  0  0  0  0  0  0
   -0.3711    4.2616   -3.5086 H   0  0  0  0  0  0  0  0  0  0  0  0
    1.3992    3.7284   -2.1044 H   0  0  0  0  0  0  0  0  0  0  0  0
    2.9705    2.6451   -3.5550 H   0  0  0  0  0  0  0  0  0  0  0  0
    1.8602    1.2383   -3.8323 H   0  0  0  0  0  0  0  0  0  0  0  0
    4.4380   -1.5786   -1.1513 H   0  0  0  0  0  0  0  0  0  0  0  0
    2.2117    0.0928    0.1260 H   0  0  0  0  0  0  0  0  0  0  0  0
    1.7668   -0.4908    2.4495 H   0  0  0  0  0  0  0  0  0  0  0  0
    1.5565   -2.1870    4.2164 H   0  0  0  0  0  0  0  0  0  0  0  0
    2.7985   -5.6157    4.0048 H   0  0  0  0  0  0  0  0  0  0  0  0
    3.6196   -5.0379    1.7482 H   0  0  0  0  0  0  0  0  0  0  0  0
    3.8256   -3.3773   -0.0290 H   0  0  0  0  0  0  0  0  0  0  0  0
   -1.0917    3.5168   -1.2714 H   0  0  0  0  0  0  0  0  0  0  0  0
   -0.4764   -0.2334   -1.7758 H   0  0  0  0  0  0  0  0  0  0  0  0
    0.6857   -1.6566   -2.8156 H   0  0  0  0  0  0  0  0  0  0  0  0
    0.8295   -4.8504   -1.1588 H   0  0  0  0  0  0  0  0  0  0  0  0
    0.5180   -6.4176    0.7103 H   0  0  0  0  0  0  0  0  0  0  0  0
   -1.1210   -3.6861    2.4794 H   0  0  0  0  0  0  0  0  0  0  0  0
   -3.8777   -0.4871    2.9370 H   0  0  0  0  0  0  0  0  0  0  0  0
   -4.9372    1.0160    4.5681 H   0  0  0  0  0  0  0  0  0  0  0  0
   -4.9976    3.2169    5.6635 H   0  0  0  0  0  0  0  0  0  0  0  0
   -2.3454    5.0331    4.3028 H   0  0  0  0  0  0  0  0  0  0  0  0
   -0.9947    2.5815    1.9969 H   0  0  0  0  0  0  0  0  0  0  0  0
   -2.2436    1.0513   -2.6836 H   0  0  0  0  0  0  0  0  0  0  0  0
   -3.7280    2.5074   -3.2539 H   0  0  0  0  0  0  0  0  0  0  0  0
   -0.5912    1.2922   -4.2561 H   0  0  0  0  0  0  0  0  0  0  0  0
   -2.1167    3.5805   -5.0269 H   0  0  0  0  0  0  0  0  0  0  0  0
  1  2  1  0
  2  3  1  0
  3  4  1  0
  4  5  1  0
  5  6  1  0
  6  7  2  0
  6  8  1  0
  8  9  2  0
  9 10  1  0
 10 11  2  0
 11 12  1  0
 12 13  2  0
 13 14  1  0
 13 15  1  0
 15 16  2  0
  3 17  1  0
 17 18  1  0
 18 19  1  0
 19 20  1  0
 20 21  2  0
 21 22  1  0
 22 23  2  0
 23 24  1  0
 23 25  1  0
 25 26  2  0
 26 27  1  0
 26 28  1  0
 28 29  2  0
 29 30  1  0
 30 31  2  0
 31 32  1  0
 32 33  2  0
 33 34  1  0
 34 35  2  0
 35 36  1  0
 35 37  1  0
 37 38  1  0
 37 39  2  0
 18 40  1  0
 40 41  1  0
 40 42  1  0
 42 43  1  0
 42  2  1  0
 16 10  1  0
 31 20  1  0
 39 32  1  0
 29 22  1  0
  1 44  1  0
  2 45  1  0
  3 46  1  0
  4 47  1  0
  4 48  1  0
  8 49  1  0
  9 50  1  0
 11 51  1  0
 12 52  1  0
 14 53  1  0
 15 54  1  0
 16 55  1  0
 18 56  1  0
 21 57  1  0
 24 58  1  0
 25 59  1  0
 27 60  1  0
 28 61  1  0
 33 62  1  0
 34 63  1  0
 36 64  1  0
 38 65  1  0
 39 66  1  0
 40 67  1  0
 41 68  1  0
 42 69  1  0
 43 70  1  0
M  CHG  1  30   1
M  END
>  <LIG_ID>  (58) 
57

>  <_smiles>  (58) 
OC1C(COC(=O)\C=C\C2=CC=C(O)C=C2)OC(OC2=CC3=C(O)C=C(O)C=C3[O+]=C2C2=CC=C(O)C(O)=C2)C(O)C1O

>  <_name>  (58) 
Cyanidin 3-O-(6''-p-coumaroyl-glucoside)

>  <_molecular_weight>  (58) 
595.528

>  <_formula>  (58) 
C30H27O13

>  <_logP>  (58) 
2.351900000000002

>  <_molecular_wt_calculated>  (58) 
595.5330000000014

>  <_havy_atom_count>  (58) 
43

>  <_hydrogen_acceptors>  (58) 
12

>  <_hydrogen_donors>  (58) 
8

>  <_rotatable_bonds>  (58) 
15

>  <_amide_bonds>  (58) 
0

>  <_ring_count>  (58) 
5

$$$$
Cyanidin 3-O-sambubioside 5-O-glucoside
     RDKit          3D

 91 96  0  0  0  0  0  0  0  0999 V2000
   -7.7581   -0.2521    2.8200 O   0  0  0  0  0  0  0  0  0  0  0  0
   -8.2604   -0.0131    1.5335 C   0  0  0  0  0  0  0  0  0  0  0  0
   -7.5950   -0.9062    0.4598 C   0  0  0  0  0  0  0  0  0  0  0  0
   -6.3068   -0.4385    0.0817 O   0  0  0  0  0  0  0  0  0  0  0  0
   -5.2887   -0.8263    0.9880 C   0  0  0  0  0  0  0  0  0  0  0  0
   -4.0479   -0.2825    0.5415 O   0  0  0  0  0  0  0  0  0  0  0  0
   -3.7217    1.0848    0.5141 C   0  0  0  0  0  0  0  0  0  0  0  0
   -2.4465    1.4733    0.0582 C   0  0  0  0  0  0  0  0  0  0  0  0
   -1.4983    0.5354   -0.3663 C   0  0  0  0  0  0  0  0  0  0  0  0
   -0.2339    0.9608   -0.7712 C   0  0  0  0  0  0  0  0  0  0  0  0
    0.7338    0.0105   -1.1065 O   0  0  0  0  0  0  0  0  0  0  0  0
    1.8284   -0.2802   -0.2335 C   0  0  0  0  0  0  0  0  0  0  0  0
    1.3945   -1.0128    0.9021 O   0  0  0  0  0  0  0  0  0  0  0  0
    0.8722   -2.2818    0.5387 C   0  0  0  0  0  0  0  0  0  0  0  0
    0.2873   -2.9486    1.7940 C   0  0  0  0  0  0  0  0  0  0  0  0
    1.2791   -3.1685    2.7620 O   0  0  0  0  0  0  0  0  0  0  0  0
    1.9642   -3.1583   -0.1150 C   0  0  0  0  0  0  0  0  0  0  0  0
    1.4233   -4.4002   -0.4882 O   0  0  0  0  0  0  0  0  0  0  0  0
    2.5359   -2.4417   -1.3511 C   0  0  0  0  0  0  0  0  0  0  0  0
    1.5733   -2.4188   -2.3757 O   0  0  0  0  0  0  0  0  0  0  0  0
    2.9612   -1.0045   -0.9847 C   0  0  0  0  0  0  0  0  0  0  0  0
    4.0977   -1.0434   -0.1334 O   0  0  0  0  0  0  0  0  0  0  0  0
    5.3107   -0.9000   -0.8525 C   0  0  0  0  0  0  0  0  0  0  0  0
    6.3218   -1.5630   -0.1045 O   0  0  0  0  0  0  0  0  0  0  0  0
    7.6066   -1.2315   -0.5903 C   0  0  0  0  0  0  0  0  0  0  0  0
    7.9736    0.2144   -0.2026 C   0  0  0  0  0  0  0  0  0  0  0  0
    8.8407    0.7414   -1.1740 O   0  0  0  0  0  0  0  0  0  0  0  0
    6.7074    1.0955   -0.0771 C   0  0  0  0  0  0  0  0  0  0  0  0
    6.2215    1.0236    1.2401 O   0  0  0  0  0  0  0  0  0  0  0  0
    5.6168    0.6190   -1.0601 C   0  0  0  0  0  0  0  0  0  0  0  0
    6.0406    0.8274   -2.3839 O   0  0  0  0  0  0  0  0  0  0  0  0
    0.0422    2.3435   -0.8007 C   0  0  0  0  0  0  0  0  0  0  0  0
   -0.8809    3.2093   -0.3860 O   0  0  0  0  0  3  0  0  0  0  0  0
   -2.0859    2.8382    0.0371 C   0  0  0  0  0  0  0  0  0  0  0  0
   -2.9986    3.8073    0.4597 C   0  0  0  0  0  0  0  0  0  0  0  0
   -4.2670    3.4318    0.9083 C   0  0  0  0  0  0  0  0  0  0  0  0
   -5.1638    4.4130    1.3259 O   0  0  0  0  0  0  0  0  0  0  0  0
   -4.6279    2.0778    0.9373 C   0  0  0  0  0  0  0  0  0  0  0  0
    1.3364    2.8712   -1.2830 C   0  0  0  0  0  0  0  0  0  0  0  0
    1.9735    3.9021   -0.5769 C   0  0  0  0  0  0  0  0  0  0  0  0
    3.1954    4.4125   -1.0226 C   0  0  0  0  0  0  0  0  0  0  0  0
    3.7856    3.9143   -2.1918 C   0  0  0  0  0  0  0  0  0  0  0  0
    5.0037    4.4270   -2.6350 O   0  0  0  0  0  0  0  0  0  0  0  0
    3.1424    2.8974   -2.9175 C   0  0  0  0  0  0  0  0  0  0  0  0
    3.6941    2.3907   -4.0937 O   0  0  0  0  0  0  0  0  0  0  0  0
    1.9250    2.3809   -2.4616 C   0  0  0  0  0  0  0  0  0  0  0  0
   -5.1549   -2.3534    1.0318 C   0  0  0  0  0  0  0  0  0  0  0  0
   -4.0918   -2.7092    1.8783 O   0  0  0  0  0  0  0  0  0  0  0  0
   -6.4641   -2.9779    1.5308 C   0  0  0  0  0  0  0  0  0  0  0  0
   -6.6308   -2.7085    2.9000 O   0  0  0  0  0  0  0  0  0  0  0  0
   -7.6503   -2.4447    0.7033 C   0  0  0  0  0  0  0  0  0  0  0  0
   -8.8652   -2.8227    1.2991 O   0  0  0  0  0  0  0  0  0  0  0  0
   -8.4330   -0.7978    3.3018 H   0  0  0  0  0  0  0  0  0  0  0  0
   -8.0760    1.0517    1.2775 H   0  0  0  0  0  0  0  0  0  0  0  0
   -9.3669   -0.1568    1.5051 H   0  0  0  0  0  0  0  0  0  0  0  0
   -8.2295   -0.7461   -0.4402 H   0  0  0  0  0  0  0  0  0  0  0  0
   -5.4822   -0.4409    2.0114 H   0  0  0  0  0  0  0  0  0  0  0  0
   -1.7215   -0.5237   -0.3563 H   0  0  0  0  0  0  0  0  0  0  0  0
    2.2520    0.6801    0.1333 H   0  0  0  0  0  0  0  0  0  0  0  0
    0.0255   -2.1661   -0.1747 H   0  0  0  0  0  0  0  0  0  0  0  0
   -0.1714   -3.9236    1.5248 H   0  0  0  0  0  0  0  0  0  0  0  0
   -0.5263   -2.3112    2.2110 H   0  0  0  0  0  0  0  0  0  0  0  0
    1.4303   -2.3005    3.2192 H   0  0  0  0  0  0  0  0  0  0  0  0
    2.7872   -3.3139    0.6221 H   0  0  0  0  0  0  0  0  0  0  0  0
    2.1908   -5.0073   -0.6561 H   0  0  0  0  0  0  0  0  0  0  0  0
    3.4268   -3.0138   -1.7003 H   0  0  0  0  0  0  0  0  0  0  0  0
    2.0548   -2.2038   -3.2170 H   0  0  0  0  0  0  0  0  0  0  0  0
    3.1537   -0.4267   -1.9214 H   0  0  0  0  0  0  0  0  0  0  0  0
    5.2436   -1.4120   -1.8443 H   0  0  0  0  0  0  0  0  0  0  0  0
    8.3467   -1.9270   -0.1407 H   0  0  0  0  0  0  0  0  0  0  0  0
    7.6635   -1.3805   -1.6942 H   0  0  0  0  0  0  0  0  0  0  0  0
    8.4972    0.1895    0.7829 H   0  0  0  0  0  0  0  0  0  0  0  0
    9.2929    1.5236   -0.7621 H   0  0  0  0  0  0  0  0  0  0  0  0
    6.9743    2.1550   -0.3033 H   0  0  0  0  0  0  0  0  0  0  0  0
    5.5796    1.7731    1.3520 H   0  0  0  0  0  0  0  0  0  0  0  0
    4.6926    1.2175   -0.8845 H   0  0  0  0  0  0  0  0  0  0  0  0
    6.0555    1.8085   -2.5318 H   0  0  0  0  0  0  0  0  0  0  0  0
   -2.7221    4.8544    0.4407 H   0  0  0  0  0  0  0  0  0  0  0  0
   -6.0919    4.1766    1.6572 H   0  0  0  0  0  0  0  0  0  0  0  0
   -5.6127    1.8123    1.2938 H   0  0  0  0  0  0  0  0  0  0  0  0
    1.5326    4.3001    0.3290 H   0  0  0  0  0  0  0  0  0  0  0  0
    3.6820    5.1985   -0.4594 H   0  0  0  0  0  0  0  0  0  0  0  0
    5.4886    5.1571   -2.1266 H   0  0  0  0  0  0  0  0  0  0  0  0
    4.5683    2.7364   -4.4706 H   0  0  0  0  0  0  0  0  0  0  0  0
    1.4320    1.6094   -3.0401 H   0  0  0  0  0  0  0  0  0  0  0  0
   -4.9465   -2.7146   -0.0036 H   0  0  0  0  0  0  0  0  0  0  0  0
   -3.8686   -3.6550    1.6747 H   0  0  0  0  0  0  0  0  0  0  0  0
   -6.3933   -4.0815    1.3785 H   0  0  0  0  0  0  0  0  0  0  0  0
   -7.2340   -3.4083    3.2633 H   0  0  0  0  0  0  0  0  0  0  0  0
   -7.5748   -2.9380   -0.2956 H   0  0  0  0  0  0  0  0  0  0  0  0
   -9.5704   -2.7090    0.6094 H   0  0  0  0  0  0  0  0  0  0  0  0
  1  2  1  0
  2  3  1  0
  3  4  1  0
  4  5  1  0
  5  6  1  0
  6  7  1  0
  7  8  1  0
  8  9  2  0
  9 10  1  0
 10 11  1  0
 11 12  1  0
 12 13  1  0
 13 14  1  0
 14 15  1  0
 15 16  1  0
 14 17  1  0
 17 18  1  0
 17 19  1  0
 19 20  1  0
 19 21  1  0
 21 22  1  0
 22 23  1  0
 23 24  1  0
 24 25  1  0
 25 26  1  0
 26 27  1  0
 26 28  1  0
 28 29  1  0
 28 30  1  0
 30 31  1  0
 10 32  2  0
 32 33  1  0
 33 34  2  0
 34 35  1  0
 35 36  2  0
 36 37  1  0
 36 38  1  0
 32 39  1  0
 39 40  2  0
 40 41  1  0
 41 42  2  0
 42 43  1  0
 42 44  1  0
 44 45  1  0
 44 46  2  0
  5 47  1  0
 47 48  1  0
 47 49  1  0
 49 50  1  0
 49 51  1  0
 51 52  1  0
 51  3  1  0
 38  7  2  0
 46 39  1  0
 34  8  1  0
 21 12  1  0
 30 23  1  0
  1 53  1  0
  2 54  1  0
  2 55  1  0
  3 56  1  0
  5 57  1  0
  9 58  1  0
 12 59  1  0
 14 60  1  0
 15 61  1  0
 15 62  1  0
 16 63  1  0
 17 64  1  0
 18 65  1  0
 19 66  1  0
 20 67  1  0
 21 68  1  0
 23 69  1  0
 25 70  1  0
 25 71  1  0
 26 72  1  0
 27 73  1  0
 28 74  1  0
 29 75  1  0
 30 76  1  0
 31 77  1  0
 35 78  1  0
 37 79  1  0
 38 80  1  0
 40 81  1  0
 41 82  1  0
 43 83  1  0
 45 84  1  0
 46 85  1  0
 47 86  1  0
 48 87  1  0
 49 88  1  0
 50 89  1  0
 51 90  1  0
 52 91  1  0
M  CHG  1  33   1
M  END
>  <LIG_ID>  (59) 
58

>  <_smiles>  (59) 
OCC1OC(OC2=C3C=C(OC4OC(CO)C(O)C(O)C4OC4OCC(O)C(O)C4O)C(=[O+]C3=CC(O)=C2)C2=CC=C(O)C(O)=C2)C(O)C(O)C1O

>  <_name>  (59) 
Cyanidin 3-O-sambubioside 5-O-glucoside

>  <_molecular_weight>  (59) 
743.64

>  <_formula>  (59) 
C32H39O20

>  <_logP>  (59) 
-3.6815999999999973

>  <_molecular_wt_calculated>  (59) 
743.6440000000017

>  <_havy_atom_count>  (59) 
52

>  <_hydrogen_acceptors>  (59) 
19

>  <_hydrogen_donors>  (59) 
13

>  <_rotatable_bonds>  (59) 
22

>  <_amide_bonds>  (59) 
0

>  <_ring_count>  (59) 
6

$$$$
Cyanidin 3-O-(6''-caffeoyl-glucoside)
     RDKit          3D

 71 75  0  0  0  0  0  0  0  0999 V2000
   -0.3772   -3.7878    0.6088 O   0  0  0  0  0  0  0  0  0  0  0  0
    0.5735   -2.7612    0.7374 C   0  0  2  0  0  0  0  0  0  0  0  0
   -0.0449   -1.5589    1.5272 C   0  0  1  0  0  0  0  0  0  0  0  0
    0.8135   -1.1825    2.7450 C   0  0  0  0  0  0  0  0  0  0  0  0
    2.1211   -0.7669    2.3519 O   0  0  0  0  0  0  0  0  0  0  0  0
    2.4303    0.5338    1.9327 C   0  0  0  0  0  0  0  0  0  0  0  0
    1.5660    1.4495    1.9944 O   0  0  0  0  0  0  0  0  0  0  0  0
    3.7702    0.8495    1.4151 C   0  0  0  0  0  0  0  0  0  0  0  0
    4.7305   -0.0804    1.3246 C   0  0  0  0  0  0  0  0  0  0  0  0
    6.0936    0.1902    0.8054 C   0  0  0  0  0  0  0  0  0  0  0  0
    6.3779    1.2739   -0.0502 C   0  0  0  0  0  0  0  0  0  0  0  0
    7.6808    1.4816   -0.5270 C   0  0  0  0  0  0  0  0  0  0  0  0
    7.9605    2.5559   -1.3701 O   0  0  0  0  0  0  0  0  0  0  0  0
    8.7080    0.6044   -0.1598 C   0  0  0  0  0  0  0  0  0  0  0  0
   10.0016    0.8169   -0.6333 O   0  0  0  0  0  0  0  0  0  0  0  0
    8.4286   -0.4828    0.6769 C   0  0  0  0  0  0  0  0  0  0  0  0
    7.1309   -0.6913    1.1506 C   0  0  0  0  0  0  0  0  0  0  0  0
   -0.2212   -0.4107    0.7115 O   0  0  0  0  0  0  0  0  0  0  0  0
   -0.9648   -0.7451   -0.4437 C   0  0  1  0  0  0  0  0  0  0  0  0
   -1.3766    0.4607   -1.0901 O   0  0  0  0  0  0  0  0  0  0  0  0
   -2.7093    0.7326   -1.4247 C   0  0  0  0  0  0  0  0  0  0  0  0
   -3.0227    1.0100   -2.7551 C   0  0  0  0  0  0  0  0  0  0  0  0
   -4.3598    1.2015   -3.1402 C   0  0  0  0  0  0  0  0  0  0  0  0
   -4.7561    1.4609   -4.4777 C   0  0  0  0  0  0  0  0  0  0  0  0
   -3.8490    1.5745   -5.5351 O   0  0  0  0  0  0  0  0  0  0  0  0
   -6.1159    1.6155   -4.7745 C   0  0  0  0  0  0  0  0  0  0  0  0
   -7.0849    1.5213   -3.7731 C   0  0  0  0  0  0  0  0  0  0  0  0
   -8.4294    1.6799   -4.1016 O   0  0  0  0  0  0  0  0  0  0  0  0
   -6.6993    1.2709   -2.4527 C   0  0  0  0  0  0  0  0  0  0  0  0
   -5.3490    1.1121   -2.1307 C   0  0  0  0  0  0  0  0  0  0  0  0
   -5.0077    0.8848   -0.8666 O   0  0  0  0  0  3  0  0  0  0  0  0
   -3.7491    0.7188   -0.4715 C   0  0  0  0  0  0  0  0  0  0  0  0
   -3.4880    0.5452    0.9706 C   0  0  0  0  0  0  0  0  0  0  0  0
   -2.5319    1.3373    1.6275 C   0  0  0  0  0  0  0  0  0  0  0  0
   -2.2876    1.1636    2.9970 C   0  0  0  0  0  0  0  0  0  0  0  0
   -1.3344    1.9444    3.6482 O   0  0  0  0  0  0  0  0  0  0  0  0
   -3.0047    0.1996    3.7169 C   0  0  0  0  0  0  0  0  0  0  0  0
   -2.7500    0.0203    5.0752 O   0  0  0  0  0  0  0  0  0  0  0  0
   -3.9750   -0.5761    3.0680 C   0  0  0  0  0  0  0  0  0  0  0  0
   -4.2228   -0.3971    1.7043 C   0  0  0  0  0  0  0  0  0  0  0  0
   -0.0943   -1.5730   -1.4191 C   0  0  2  0  0  0  0  0  0  0  0  0
   -0.8985   -2.4951   -2.1096 O   0  0  0  0  0  0  0  0  0  0  0  0
    1.0297   -2.3272   -0.6724 C   0  0  1  0  0  0  0  0  0  0  0  0
    2.1561   -1.4923   -0.5731 O   0  0  0  0  0  0  0  0  0  0  0  0
   -0.4525   -4.2209    1.4992 H   0  0  0  0  0  0  0  0  0  0  0  0
    1.4648   -3.1721    1.2686 H   0  0  0  0  0  0  0  0  0  0  0  0
   -1.0365   -1.8570    1.9423 H   0  0  0  0  0  0  0  0  0  0  0  0
    0.9096   -2.0694    3.4071 H   0  0  0  0  0  0  0  0  0  0  0  0
    0.3149   -0.3862    3.3391 H   0  0  0  0  0  0  0  0  0  0  0  0
    3.9616    1.8727    1.1223 H   0  0  0  0  0  0  0  0  0  0  0  0
    4.5252   -1.0832    1.6815 H   0  0  0  0  0  0  0  0  0  0  0  0
    5.5967    1.9473   -0.3738 H   0  0  0  0  0  0  0  0  0  0  0  0
    7.2396    3.2084   -1.6554 H   0  0  0  0  0  0  0  0  0  0  0  0
   10.7649    0.1981   -0.3857 H   0  0  0  0  0  0  0  0  0  0  0  0
    9.2170   -1.1685    0.9605 H   0  0  0  0  0  0  0  0  0  0  0  0
    6.9380   -1.5394    1.7965 H   0  0  0  0  0  0  0  0  0  0  0  0
   -1.8671   -1.3431   -0.1655 H   0  0  0  0  0  0  0  0  0  0  0  0
   -2.2114    1.0310   -3.4657 H   0  0  0  0  0  0  0  0  0  0  0  0
   -2.8469    1.5015   -5.4369 H   0  0  0  0  0  0  0  0  0  0  0  0
   -6.4219    1.8120   -5.7947 H   0  0  0  0  0  0  0  0  0  0  0  0
   -9.1573    1.6181   -3.3992 H   0  0  0  0  0  0  0  0  0  0  0  0
   -7.4492    1.2009   -1.6743 H   0  0  0  0  0  0  0  0  0  0  0  0
   -1.9766    2.0869    1.0769 H   0  0  0  0  0  0  0  0  0  0  0  0
   -0.8011    2.6506    3.1548 H   0  0  0  0  0  0  0  0  0  0  0  0
   -3.2519   -0.6698    5.6218 H   0  0  0  0  0  0  0  0  0  0  0  0
   -4.5372   -1.3187    3.6196 H   0  0  0  0  0  0  0  0  0  0  0  0
   -4.9728   -1.0075    1.2163 H   0  0  0  0  0  0  0  0  0  0  0  0
    0.3882   -0.8915   -2.1599 H   0  0  0  0  0  0  0  0  0  0  0  0
   -1.4452   -1.9722   -2.7530 H   0  0  0  0  0  0  0  0  0  0  0  0
    1.3062   -3.2332   -1.2629 H   0  0  0  0  0  0  0  0  0  0  0  0
    2.9319   -2.0760   -0.3648 H   0  0  0  0  0  0  0  0  0  0  0  0
  1  2  1  0
  2  3  1  0
  3  4  1  0
  4  5  1  0
  5  6  1  0
  6  7  2  0
  6  8  1  0
  8  9  2  0
  9 10  1  0
 10 11  2  0
 11 12  1  0
 12 13  1  0
 12 14  2  0
 14 15  1  0
 14 16  1  0
 16 17  2  0
  3 18  1  0
 18 19  1  0
 19 20  1  0
 20 21  1  0
 21 22  2  0
 22 23  1  0
 23 24  2  0
 24 25  1  0
 24 26  1  0
 26 27  2  0
 27 28  1  0
 27 29  1  0
 29 30  2  0
 30 31  1  0
 31 32  2  0
 32 33  1  0
 33 34  2  0
 34 35  1  0
 35 36  1  0
 35 37  2  0
 37 38  1  0
 37 39  1  0
 39 40  2  0
 19 41  1  0
 41 42  1  0
 41 43  1  0
 43 44  1  0
 43  2  1  0
 17 10  1  0
 32 21  1  0
 40 33  1  0
 30 23  1  0
  1 45  1  0
  2 46  1  1
  3 47  1  1
  4 48  1  0
  4 49  1  0
  8 50  1  0
  9 51  1  0
 11 52  1  0
 13 53  1  0
 15 54  1  0
 16 55  1  0
 17 56  1  0
 19 57  1  1
 22 58  1  0
 25 59  1  0
 26 60  1  0
 28 61  1  0
 29 62  1  0
 34 63  1  0
 36 64  1  0
 38 65  1  0
 39 66  1  0
 40 67  1  0
 41 68  1  6
 42 69  1  0
 43 70  1  6
 44 71  1  0
M  CHG  1  31   1
M  END
>  <LIG_ID>  (60) 
59

>  <_smiles>  (60) 
O[C@@H]1[C@@H](COC(=O)\C=C\C2=CC(O)=C(O)C=C2)O[C@@H](OC2=CC3=C(O)C=C(O)C=C3[O+]=C2C2=CC(O)=C(O)C=C2)[C@H](O)[C@H]1O

>  <_name>  (60) 
Cyanidin 3-O-(6''-caffeoyl-glucoside)

>  <_molecular_weight>  (60) 
611.527

>  <_formula>  (60) 
C30H27O14

>  <_logP>  (60) 
2.0575000000000023

>  <_molecular_wt_calculated>  (60) 
611.5320000000014

>  <_havy_atom_count>  (60) 
44

>  <_hydrogen_acceptors>  (60) 
13

>  <_hydrogen_donors>  (60) 
9

>  <_rotatable_bonds>  (60) 
16

>  <_amide_bonds>  (60) 
0

>  <_ring_count>  (60) 
5

$$$$
Cyanidin 3,5-O-diglucoside
     RDKit          3D

 74 78  0  0  0  0  0  0  0  0999 V2000
    7.0749   -1.3697   -3.1592 O   0  0  0  0  0  0  0  0  0  0  0  0
    5.7065   -1.1613   -2.9307 C   0  0  0  0  0  0  0  0  0  0  0  0
    5.3948   -1.1559   -1.4262 C   0  0  1  0  0  0  0  0  0  0  0  0
    4.0381   -0.7659   -1.2638 O   0  0  0  0  0  0  0  0  0  0  0  0
    3.6426   -0.9021    0.0872 C   0  0  1  0  0  0  0  0  0  0  0  0
    2.4067   -0.2189    0.2868 O   0  0  0  0  0  0  0  0  0  0  0  0
    2.2133    1.1671    0.1512 C   0  0  0  0  0  0  0  0  0  0  0  0
    3.2804    2.0459   -0.1241 C   0  0  0  0  0  0  0  0  0  0  0  0
    3.0538    3.4225   -0.2572 C   0  0  0  0  0  0  0  0  0  0  0  0
    4.1084    4.2914   -0.5289 O   0  0  0  0  0  0  0  0  0  0  0  0
    1.7615    3.9340   -0.1185 C   0  0  0  0  0  0  0  0  0  0  0  0
    0.6910    3.0787    0.1531 C   0  0  0  0  0  0  0  0  0  0  0  0
   -0.5344    3.5780    0.2726 O   0  0  0  0  0  3  0  0  0  0  0  0
   -1.6069    2.8285    0.5207 C   0  0  0  0  0  0  0  0  0  0  0  0
   -1.4673    1.4368    0.7004 C   0  0  0  0  0  0  0  0  0  0  0  0
   -2.5946    0.6609    1.0208 O   0  0  0  0  0  0  0  0  0  0  0  0
   -2.6079   -0.7606    1.1487 C   0  0  2  0  0  0  0  0  0  0  0  0
   -2.2151   -1.3300   -0.0938 O   0  0  0  0  0  0  0  0  0  0  0  0
   -2.4646   -2.7208   -0.1066 C   0  0  2  0  0  0  0  0  0  0  0  0
   -1.6822   -3.3592   -1.2618 C   0  0  0  0  0  0  0  0  0  0  0  0
   -0.3059   -3.1464   -1.0970 O   0  0  0  0  0  0  0  0  0  0  0  0
   -3.9886   -2.9632   -0.2604 C   0  0  1  0  0  0  0  0  0  0  0  0
   -4.3428   -4.2341    0.2278 O   0  0  0  0  0  0  0  0  0  0  0  0
   -4.8142   -1.8430    0.4342 C   0  0  2  0  0  0  0  0  0  0  0  0
   -5.1279   -0.8342   -0.4938 O   0  0  0  0  0  0  0  0  0  0  0  0
   -4.0301   -1.2066    1.6017 C   0  0  1  0  0  0  0  0  0  0  0  0
   -3.9145   -2.1232    2.6611 O   0  0  0  0  0  0  0  0  0  0  0  0
   -0.1863    0.8751    0.5764 C   0  0  0  0  0  0  0  0  0  0  0  0
    0.9135    1.6934    0.2939 C   0  0  0  0  0  0  0  0  0  0  0  0
   -2.9231    3.5004    0.6123 C   0  0  0  0  0  0  0  0  0  0  0  0
   -3.0249    4.7350    1.2734 C   0  0  0  0  0  0  0  0  0  0  0  0
   -4.2541    5.3988    1.3612 C   0  0  0  0  0  0  0  0  0  0  0  0
   -4.3195    6.6162    2.0380 O   0  0  0  0  0  0  0  0  0  0  0  0
   -5.3970    4.8343    0.7703 C   0  0  0  0  0  0  0  0  0  0  0  0
   -6.6246    5.4891    0.8559 O   0  0  0  0  0  0  0  0  0  0  0  0
   -5.2958    3.6132    0.0908 C   0  0  0  0  0  0  0  0  0  0  0  0
   -4.0674    2.9538    0.0048 C   0  0  0  0  0  0  0  0  0  0  0  0
    3.4448   -2.3991    0.4127 C   0  0  2  0  0  0  0  0  0  0  0  0
    3.5773   -2.6302    1.7938 O   0  0  0  0  0  0  0  0  0  0  0  0
    4.4077   -3.2971   -0.4077 C   0  0  1  0  0  0  0  0  0  0  0  0
    3.7591   -3.7081   -1.5857 O   0  0  0  0  0  0  0  0  0  0  0  0
    5.7092   -2.5440   -0.7739 C   0  0  2  0  0  0  0  0  0  0  0  0
    6.4864   -2.3434    0.3800 O   0  0  0  0  0  0  0  0  0  0  0  0
    7.5325   -0.5150   -2.9455 H   0  0  0  0  0  0  0  0  0  0  0  0
    5.1309   -1.9702   -3.4295 H   0  0  0  0  0  0  0  0  0  0  0  0
    5.3884   -0.1955   -3.3862 H   0  0  0  0  0  0  0  0  0  0  0  0
    6.0437   -0.3725   -0.9697 H   0  0  0  0  0  0  0  0  0  0  0  0
    4.4012   -0.4590    0.7760 H   0  0  0  0  0  0  0  0  0  0  0  0
    4.2893    1.6741   -0.2350 H   0  0  0  0  0  0  0  0  0  0  0  0
    5.0583    3.9550   -0.6367 H   0  0  0  0  0  0  0  0  0  0  0  0
    1.5891    4.9979   -0.2248 H   0  0  0  0  0  0  0  0  0  0  0  0
   -1.8692   -1.0400    1.9348 H   0  0  0  0  0  0  0  0  0  0  0  0
   -2.0952   -3.1925    0.8360 H   0  0  0  0  0  0  0  0  0  0  0  0
   -1.8983   -4.4509   -1.3164 H   0  0  0  0  0  0  0  0  0  0  0  0
   -1.9947   -2.9007   -2.2245 H   0  0  0  0  0  0  0  0  0  0  0  0
   -0.0025   -3.7770   -0.3928 H   0  0  0  0  0  0  0  0  0  0  0  0
   -4.2497   -2.9508   -1.3421 H   0  0  0  0  0  0  0  0  0  0  0  0
   -4.1615   -4.2469    1.2030 H   0  0  0  0  0  0  0  0  0  0  0  0
   -5.7635   -2.2700    0.8369 H   0  0  0  0  0  0  0  0  0  0  0  0
   -5.8800   -1.1734   -1.0463 H   0  0  0  0  0  0  0  0  0  0  0  0
   -4.5939   -0.3138    1.9643 H   0  0  0  0  0  0  0  0  0  0  0  0
   -4.8039   -2.1726    3.1000 H   0  0  0  0  0  0  0  0  0  0  0  0
   -0.0419   -0.1880    0.7094 H   0  0  0  0  0  0  0  0  0  0  0  0
   -2.1506    5.1790    1.7345 H   0  0  0  0  0  0  0  0  0  0  0  0
   -5.1845    7.1354    2.1291 H   0  0  0  0  0  0  0  0  0  0  0  0
   -7.4625    5.1027    0.4369 H   0  0  0  0  0  0  0  0  0  0  0  0
   -6.1684    3.1777   -0.3793 H   0  0  0  0  0  0  0  0  0  0  0  0
   -4.0098    2.0299   -0.5564 H   0  0  0  0  0  0  0  0  0  0  0  0
    2.4036   -2.6810    0.1386 H   0  0  0  0  0  0  0  0  0  0  0  0
    4.5150   -2.4289    2.0476 H   0  0  0  0  0  0  0  0  0  0  0  0
    4.6595   -4.2009    0.1965 H   0  0  0  0  0  0  0  0  0  0  0  0
    4.2644   -4.4870   -1.9379 H   0  0  0  0  0  0  0  0  0  0  0  0
    6.2930   -3.1789   -1.4820 H   0  0  0  0  0  0  0  0  0  0  0  0
    6.8814   -3.2221    0.6210 H   0  0  0  0  0  0  0  0  0  0  0  0
  1  2  1  0
  2  3  1  0
  3  4  1  0
  4  5  1  0
  5  6  1  0
  6  7  1  0
  7  8  2  0
  8  9  1  0
  9 10  1  0
  9 11  2  0
 11 12  1  0
 12 13  2  0
 13 14  1  0
 14 15  2  0
 15 16  1  0
 16 17  1  0
 17 18  1  0
 18 19  1  0
 19 20  1  0
 20 21  1  0
 19 22  1  0
 22 23  1  0
 22 24  1  0
 24 25  1  0
 24 26  1  0
 26 27  1  0
 15 28  1  0
 28 29  2  0
 14 30  1  0
 30 31  2  0
 31 32  1  0
 32 33  1  0
 32 34  2  0
 34 35  1  0
 34 36  1  0
 36 37  2  0
  5 38  1  0
 38 39  1  0
 38 40  1  0
 40 41  1  0
 40 42  1  0
 42 43  1  0
 42  3  1  0
 29  7  1  0
 37 30  1  0
 29 12  1  0
 26 17  1  0
  1 44  1  0
  2 45  1  0
  2 46  1  0
  3 47  1  1
  5 48  1  1
  8 49  1  0
 10 50  1  0
 11 51  1  0
 17 52  1  1
 19 53  1  1
 20 54  1  0
 20 55  1  0
 21 56  1  0
 22 57  1  6
 23 58  1  0
 24 59  1  1
 25 60  1  0
 26 61  1  1
 27 62  1  0
 28 63  1  0
 31 64  1  0
 33 65  1  0
 35 66  1  0
 36 67  1  0
 37 68  1  0
 38 69  1  6
 39 70  1  0
 40 71  1  1
 41 72  1  0
 42 73  1  6
 43 74  1  0
M  CHG  1  13   1
M  END
>  <LIG_ID>  (61) 
60

>  <_smiles>  (61) 
OC[C@H]1O[C@@H](OC2=CC(O)=CC3=[O+]C(=C(O[C@@H]4O[C@H](CO)[C@@H](O)[C@H](O)[C@H]4O)C=C23)C2=CC(O)=C(O)C=C2)[C@H](O)[C@@H](O)[C@@H]1O

>  <_name>  (61) 
Cyanidin 3,5-O-diglucoside

>  <_molecular_weight>  (61) 
611.525

>  <_formula>  (61) 
C27H31O16

>  <_logP>  (61) 
-2.1449000000000007

>  <_molecular_wt_calculated>  (61) 
611.5290000000016

>  <_havy_atom_count>  (61) 
43

>  <_hydrogen_acceptors>  (61) 
15

>  <_hydrogen_donors>  (61) 
11

>  <_rotatable_bonds>  (61) 
18

>  <_amide_bonds>  (61) 
0

>  <_ring_count>  (61) 
5

$$$$
Pinotin A
     RDKit          3D

 74 79  0  0  0  0  0  0  0  0999 V2000
   -0.7205    2.9897   -0.4595 C   0  0  1  0  0  0  0  0  0  0  0  0
    0.2463    3.6900   -1.4256 C   0  0  0  0  0  0  0  0  0  0  0  0
    1.4982    3.8951   -0.8248 O   0  0  0  0  0  0  0  0  0  0  0  0
   -0.1261    1.7788   -0.0263 O   0  0  0  0  0  0  0  0  0  0  0  0
   -1.0460    1.0069    0.7279 C   0  0  1  0  0  0  0  0  0  0  0  0
   -0.4424   -0.2454    1.0400 O   0  0  0  0  0  0  0  0  0  0  0  0
   -0.1014   -1.1584    0.0383 C   0  0  0  0  0  0  0  0  0  0  0  0
    1.2117   -1.2070   -0.4522 C   0  0  0  0  0  0  0  0  0  0  0  0
    2.2851   -0.3408    0.0878 C   0  0  0  0  0  0  0  0  0  0  0  0
    3.5206   -0.3843   -0.4496 C   0  0  0  0  0  0  0  0  0  0  0  0
    3.7898   -1.2835   -1.4991 O   0  0  0  0  0  0  0  0  0  0  0  0
    2.8008   -2.1204   -2.0319 C   0  0  0  0  0  0  0  0  0  0  0  0
    3.0909   -2.9917   -3.0867 C   0  0  0  0  0  0  0  0  0  0  0  0
    2.0847   -3.8111   -3.6186 C   0  0  0  0  0  0  0  0  0  0  0  0
    2.3877   -4.6732   -4.6700 O   0  0  0  0  0  0  0  0  0  0  0  0
    0.7826   -3.7570   -3.0922 C   0  0  0  0  0  0  0  0  0  0  0  0
    0.4890   -2.8884   -2.0348 C   0  0  0  0  0  0  0  0  0  0  0  0
   -0.7398   -2.8287   -1.5315 O   0  0  0  0  0  3  0  0  0  0  0  0
   -1.0711   -2.0195   -0.5241 C   0  0  0  0  0  0  0  0  0  0  0  0
   -2.4655   -2.0419   -0.0337 C   0  0  0  0  0  0  0  0  0  0  0  0
   -2.7468   -2.0938    1.3397 C   0  0  0  0  0  0  0  0  0  0  0  0
   -4.0766   -2.1178    1.7968 C   0  0  0  0  0  0  0  0  0  0  0  0
   -4.3955   -2.1717    3.1632 O   0  0  0  0  0  0  0  0  0  0  0  0
   -3.4378   -2.2566    4.2138 C   0  0  0  0  0  0  0  0  0  0  0  0
   -5.1267   -2.0926    0.8682 C   0  0  0  0  0  0  0  0  0  0  0  0
   -6.4412   -2.1066    1.3378 O   0  0  0  0  0  0  0  0  0  0  0  0
   -4.8577   -2.0597   -0.5124 C   0  0  0  0  0  0  0  0  0  0  0  0
   -5.9361   -2.0433   -1.4118 O   0  0  0  0  0  0  0  0  0  0  0  0
   -5.8065   -2.0067   -2.8294 C   0  0  0  0  0  0  0  0  0  0  0  0
   -3.5216   -2.0443   -0.9539 C   0  0  0  0  0  0  0  0  0  0  0  0
    1.5052   -2.0760   -1.5049 C   0  0  0  0  0  0  0  0  0  0  0  0
    4.6200    0.4834    0.0421 C   0  0  0  0  0  0  0  0  0  0  0  0
    4.3707    1.7559    0.5930 C   0  0  0  0  0  0  0  0  0  0  0  0
    5.4282    2.5569    1.0317 C   0  0  0  0  0  0  0  0  0  0  0  0
    6.7493    2.1063    0.9204 C   0  0  0  0  0  0  0  0  0  0  0  0
    7.8061    2.9023    1.3584 O   0  0  0  0  0  0  0  0  0  0  0  0
    7.0110    0.8496    0.3621 C   0  0  0  0  0  0  0  0  0  0  0  0
    8.3273    0.4056    0.2485 O   0  0  0  0  0  0  0  0  0  0  0  0
    5.9502    0.0456   -0.0795 C   0  0  0  0  0  0  0  0  0  0  0  0
   -1.4045    1.7249    2.0394 C   0  0  2  0  0  0  0  0  0  0  0  0
   -2.3441    0.9577    2.7456 O   0  0  0  0  0  0  0  0  0  0  0  0
   -1.9908    3.1159    1.7237 C   0  0  1  0  0  0  0  0  0  0  0  0
   -2.2084    3.8523    2.9017 O   0  0  0  0  0  0  0  0  0  0  0  0
   -1.0621    3.8835    0.7596 C   0  0  2  0  0  0  0  0  0  0  0  0
   -1.6555    5.0944    0.3596 O   0  0  0  0  0  0  0  0  0  0  0  0
   -1.6513    2.7766   -1.0367 H   0  0  0  0  0  0  0  0  0  0  0  0
   -0.1880    4.6492   -1.7913 H   0  0  0  0  0  0  0  0  0  0  0  0
    0.3908    3.0403   -2.3151 H   0  0  0  0  0  0  0  0  0  0  0  0
    1.4776    4.7988   -0.4148 H   0  0  0  0  0  0  0  0  0  0  0  0
   -1.9748    0.8136    0.1406 H   0  0  0  0  0  0  0  0  0  0  0  0
    2.0686    0.3064    0.9273 H   0  0  0  0  0  0  0  0  0  0  0  0
    4.0929   -3.0296   -3.4950 H   0  0  0  0  0  0  0  0  0  0  0  0
    1.6846   -5.2782   -5.0779 H   0  0  0  0  0  0  0  0  0  0  0  0
    0.0036   -4.3869   -3.5033 H   0  0  0  0  0  0  0  0  0  0  0  0
   -1.9283   -2.1309    2.0455 H   0  0  0  0  0  0  0  0  0  0  0  0
   -2.7804   -1.3627    4.2073 H   0  0  0  0  0  0  0  0  0  0  0  0
   -3.9698   -2.2977    5.1862 H   0  0  0  0  0  0  0  0  0  0  0  0
   -2.8296   -3.1789    4.1020 H   0  0  0  0  0  0  0  0  0  0  0  0
   -7.2394   -2.0910    0.7144 H   0  0  0  0  0  0  0  0  0  0  0  0
   -5.2708   -1.0849   -3.1403 H   0  0  0  0  0  0  0  0  0  0  0  0
   -6.8175   -2.0003   -3.2855 H   0  0  0  0  0  0  0  0  0  0  0  0
   -5.2614   -2.9059   -3.1865 H   0  0  0  0  0  0  0  0  0  0  0  0
   -3.2947   -2.0155   -2.0116 H   0  0  0  0  0  0  0  0  0  0  0  0
    3.3647    2.1475    0.6645 H   0  0  0  0  0  0  0  0  0  0  0  0
    5.2196    3.5327    1.4518 H   0  0  0  0  0  0  0  0  0  0  0  0
    7.6476    3.8167    1.7655 H   0  0  0  0  0  0  0  0  0  0  0  0
    8.5494   -0.4987   -0.1512 H   0  0  0  0  0  0  0  0  0  0  0  0
    6.1666   -0.9261   -0.5066 H   0  0  0  0  0  0  0  0  0  0  0  0
   -0.4703    1.8357    2.6401 H   0  0  0  0  0  0  0  0  0  0  0  0
   -2.3119    1.2623    3.6898 H   0  0  0  0  0  0  0  0  0  0  0  0
   -2.9766    2.9707    1.2274 H   0  0  0  0  0  0  0  0  0  0  0  0
   -1.3311    3.9667    3.3528 H   0  0  0  0  0  0  0  0  0  0  0  0
   -0.1197    4.1227    1.2995 H   0  0  0  0  0  0  0  0  0  0  0  0
   -2.4812    4.8729   -0.1456 H   0  0  0  0  0  0  0  0  0  0  0  0
  1  2  1  0
  2  3  1  0
  1  4  1  0
  4  5  1  0
  5  6  1  0
  6  7  1  0
  7  8  2  0
  8  9  1  0
  9 10  2  0
 10 11  1  0
 11 12  1  0
 12 13  2  0
 13 14  1  0
 14 15  1  0
 14 16  2  0
 16 17  1  0
 17 18  1  0
 18 19  2  0
 19 20  1  0
 20 21  2  0
 21 22  1  0
 22 23  1  0
 23 24  1  0
 22 25  2  0
 25 26  1  0
 25 27  1  0
 27 28  1  0
 28 29  1  0
 27 30  2  0
 17 31  2  0
 10 32  1  0
 32 33  2  0
 33 34  1  0
 34 35  2  0
 35 36  1  0
 35 37  1  0
 37 38  1  0
 37 39  2  0
  5 40  1  0
 40 41  1  0
 40 42  1  0
 42 43  1  0
 42 44  1  0
 44 45  1  0
 44  1  1  0
 19  7  1  0
 30 20  1  0
 39 32  1  0
 31  8  1  0
 31 12  1  0
  1 46  1  6
  2 47  1  0
  2 48  1  0
  3 49  1  0
  5 50  1  6
  9 51  1  0
 13 52  1  0
 15 53  1  0
 16 54  1  0
 21 55  1  0
 24 56  1  0
 24 57  1  0
 24 58  1  0
 26 59  1  0
 29 60  1  0
 29 61  1  0
 29 62  1  0
 30 63  1  0
 33 64  1  0
 34 65  1  0
 36 66  1  0
 38 67  1  0
 39 68  1  0
 40 69  1  1
 41 70  1  0
 42 71  1  6
 43 72  1  0
 44 73  1  1
 45 74  1  0
M  CHG  1  18   1
M  END
>  <LIG_ID>  (62) 
61

>  <_smiles>  (62) 
[H][C@]1(CO)O[C@@]([H])(OC2=C3C=C(OC4=CC(O)=CC([O+]=C2C2=CC(OC)=C(O)C(OC)=C2)=C34)C2=CC=C(O)C(O)=C2)[C@]([H])(O)[C@@]([H])(O)[C@]1([H])O

>  <_name>  (62) 
Pinotin A

>  <_molecular_weight>  (62) 
625.554

>  <_formula>  (62) 
C31H29O14

>  <_logP>  (62) 
2.289700000000003

>  <_molecular_wt_calculated>  (62) 
625.5590000000014

>  <_havy_atom_count>  (62) 
45

>  <_hydrogen_acceptors>  (62) 
13

>  <_hydrogen_donors>  (62) 
8

>  <_rotatable_bonds>  (62) 
17

>  <_amide_bonds>  (62) 
0

>  <_ring_count>  (62) 
6

$$$$
Delphinidin 3,5-O-diglucoside
     RDKit          3D

 75 79  0  0  0  0  0  0  0  0999 V2000
    2.8114   -5.4165   -0.4154 O   0  0  0  0  0  0  0  0  0  0  0  0
    2.8937   -4.5474    0.6808 C   0  0  0  0  0  0  0  0  0  0  0  0
    2.8661   -3.0902    0.2046 C   0  0  1  0  0  0  0  0  0  0  0  0
    2.7583   -2.2554    1.3492 O   0  0  0  0  0  0  0  0  0  0  0  0
    2.8731   -0.8955    0.9818 C   0  0  1  0  0  0  0  0  0  0  0  0
    2.4417   -0.0950    2.0816 O   0  0  0  0  0  0  0  0  0  0  0  0
    2.2318    1.2826    1.9678 C   0  0  0  0  0  0  0  0  0  0  0  0
    3.2251    2.1580    2.4254 C   0  0  0  0  0  0  0  0  0  0  0  0
    3.0591    3.5440    2.3144 C   0  0  0  0  0  0  0  0  0  0  0  0
    4.0533    4.4150    2.7544 O   0  0  0  0  0  0  0  0  0  0  0  0
    1.8862    4.0616    1.7597 C   0  0  0  0  0  0  0  0  0  0  0  0
    0.8727    3.2024    1.3249 C   0  0  0  0  0  0  0  0  0  0  0  0
   -0.2485    3.7132    0.8310 O   0  0  0  0  0  3  0  0  0  0  0  0
   -1.2698    2.9669    0.4186 C   0  0  0  0  0  0  0  0  0  0  0  0
   -1.1810    1.5602    0.4678 C   0  0  0  0  0  0  0  0  0  0  0  0
   -2.2512    0.7887   -0.0130 O   0  0  0  0  0  0  0  0  0  0  0  0
   -2.2734   -0.6316   -0.1381 C   0  0  2  0  0  0  0  0  0  0  0  0
   -1.3715   -1.0219   -1.1567 O   0  0  0  0  0  0  0  0  0  0  0  0
   -1.1764   -2.4312   -1.1507 C   0  0  2  0  0  0  0  0  0  0  0  0
   -0.3755   -2.7964   -2.4126 C   0  0  0  0  0  0  0  0  0  0  0  0
   -0.0930   -4.1700   -2.4611 O   0  0  0  0  0  0  0  0  0  0  0  0
   -2.5202   -3.2296   -1.0812 C   0  0  1  0  0  0  0  0  0  0  0  0
   -2.6728   -3.7622    0.2112 O   0  0  0  0  0  0  0  0  0  0  0  0
   -3.7162   -2.3133   -1.4111 C   0  0  2  0  0  0  0  0  0  0  0  0
   -3.6485   -1.9087   -2.7557 O   0  0  0  0  0  0  0  0  0  0  0  0
   -3.7123   -1.0618   -0.5035 C   0  0  1  0  0  0  0  0  0  0  0  0
   -4.4269   -1.3162    0.6795 O   0  0  0  0  0  0  0  0  0  0  0  0
   -0.0101    0.9828    0.9867 C   0  0  0  0  0  0  0  0  0  0  0  0
    1.0387    1.8040    1.4232 C   0  0  0  0  0  0  0  0  0  0  0  0
   -2.4730    3.6574   -0.1000 C   0  0  0  0  0  0  0  0  0  0  0  0
   -3.7648    3.2496    0.2673 C   0  0  0  0  0  0  0  0  0  0  0  0
   -4.8894    3.9230   -0.2249 C   0  0  0  0  0  0  0  0  0  0  0  0
   -6.1694    3.5035    0.1348 O   0  0  0  0  0  0  0  0  0  0  0  0
   -4.7373    5.0246   -1.0788 C   0  0  0  0  0  0  0  0  0  0  0  0
   -5.8922    5.6566   -1.5467 O   0  0  0  0  0  0  0  0  0  0  0  0
   -3.4371    5.4578   -1.4325 C   0  0  0  0  0  0  0  0  0  0  0  0
   -3.2080    6.5535   -2.2676 O   0  0  0  0  0  0  0  0  0  0  0  0
   -2.3220    4.7738   -0.9345 C   0  0  0  0  0  0  0  0  0  0  0  0
    4.3441   -0.5710    0.6261 C   0  0  2  0  0  0  0  0  0  0  0  0
    4.3669    0.4553   -0.3332 O   0  0  0  0  0  0  0  0  0  0  0  0
    5.0833   -1.8227    0.0858 C   0  0  1  0  0  0  0  0  0  0  0  0
    5.6557   -2.5392    1.1513 O   0  0  0  0  0  0  0  0  0  0  0  0
    4.1151   -2.7507   -0.6738 C   0  0  2  0  0  0  0  0  0  0  0  0
    3.6878   -2.1233   -1.8575 O   0  0  0  0  0  0  0  0  0  0  0  0
    2.8388   -6.3350   -0.0408 H   0  0  0  0  0  0  0  0  0  0  0  0
    3.8305   -4.7399    1.2508 H   0  0  0  0  0  0  0  0  0  0  0  0
    2.0264   -4.7252    1.3558 H   0  0  0  0  0  0  0  0  0  0  0  0
    1.9422   -2.9729   -0.4027 H   0  0  0  0  0  0  0  0  0  0  0  0
    2.2122   -0.6761    0.1085 H   0  0  0  0  0  0  0  0  0  0  0  0
    4.1325    1.7585    2.8599 H   0  0  0  0  0  0  0  0  0  0  0  0
    4.9157    4.0722    3.1612 H   0  0  0  0  0  0  0  0  0  0  0  0
    1.7566    5.1339    1.6793 H   0  0  0  0  0  0  0  0  0  0  0  0
   -1.9871   -1.0825    0.8419 H   0  0  0  0  0  0  0  0  0  0  0  0
   -0.5398   -2.6970   -0.2755 H   0  0  0  0  0  0  0  0  0  0  0  0
    0.5729   -2.2130   -2.4401 H   0  0  0  0  0  0  0  0  0  0  0  0
   -0.9611   -2.5223   -3.3158 H   0  0  0  0  0  0  0  0  0  0  0  0
    0.5947   -4.3468   -1.7694 H   0  0  0  0  0  0  0  0  0  0  0  0
   -2.5142   -4.0727   -1.8114 H   0  0  0  0  0  0  0  0  0  0  0  0
   -3.3820   -4.4552    0.1580 H   0  0  0  0  0  0  0  0  0  0  0  0
   -4.6674   -2.8749   -1.2532 H   0  0  0  0  0  0  0  0  0  0  0  0
   -3.9142   -2.6909   -3.3066 H   0  0  0  0  0  0  0  0  0  0  0  0
   -4.2074   -0.2263   -1.0556 H   0  0  0  0  0  0  0  0  0  0  0  0
   -5.3919   -1.2715    0.4495 H   0  0  0  0  0  0  0  0  0  0  0  0
    0.0806   -0.0916    1.0566 H   0  0  0  0  0  0  0  0  0  0  0  0
   -3.9041    2.4232    0.9528 H   0  0  0  0  0  0  0  0  0  0  0  0
   -6.3155    2.7102    0.7483 H   0  0  0  0  0  0  0  0  0  0  0  0
   -5.8898    6.4512   -2.1696 H   0  0  0  0  0  0  0  0  0  0  0  0
   -3.9398    7.1186   -2.6731 H   0  0  0  0  0  0  0  0  0  0  0  0
   -1.3303    5.1102   -1.2133 H   0  0  0  0  0  0  0  0  0  0  0  0
    4.8660   -0.2240    1.5490 H   0  0  0  0  0  0  0  0  0  0  0  0
    5.2730    0.8601   -0.3005 H   0  0  0  0  0  0  0  0  0  0  0  0
    5.8943   -1.5102   -0.6142 H   0  0  0  0  0  0  0  0  0  0  0  0
    6.4743   -2.0471    1.4231 H   0  0  0  0  0  0  0  0  0  0  0  0
    4.6655   -3.6833   -0.9439 H   0  0  0  0  0  0  0  0  0  0  0  0
    4.4452   -2.1647   -2.4984 H   0  0  0  0  0  0  0  0  0  0  0  0
  1  2  1  0
  2  3  1  0
  3  4  1  0
  4  5  1  0
  5  6  1  0
  6  7  1  0
  7  8  2  0
  8  9  1  0
  9 10  1  0
  9 11  2  0
 11 12  1  0
 12 13  2  0
 13 14  1  0
 14 15  2  0
 15 16  1  0
 16 17  1  0
 17 18  1  0
 18 19  1  0
 19 20  1  0
 20 21  1  0
 19 22  1  0
 22 23  1  0
 22 24  1  0
 24 25  1  0
 24 26  1  0
 26 27  1  0
 15 28  1  0
 28 29  2  0
 14 30  1  0
 30 31  2  0
 31 32  1  0
 32 33  1  0
 32 34  2  0
 34 35  1  0
 34 36  1  0
 36 37  1  0
 36 38  2  0
  5 39  1  0
 39 40  1  0
 39 41  1  0
 41 42  1  0
 41 43  1  0
 43 44  1  0
 43  3  1  0
 29  7  1  0
 38 30  1  0
 29 12  1  0
 26 17  1  0
  1 45  1  0
  2 46  1  0
  2 47  1  0
  3 48  1  6
  5 49  1  6
  8 50  1  0
 10 51  1  0
 11 52  1  0
 17 53  1  1
 19 54  1  1
 20 55  1  0
 20 56  1  0
 21 57  1  0
 22 58  1  6
 23 59  1  0
 24 60  1  6
 25 61  1  0
 26 62  1  6
 27 63  1  0
 28 64  1  0
 31 65  1  0
 33 66  1  0
 35 67  1  0
 37 68  1  0
 38 69  1  0
 39 70  1  1
 40 71  1  0
 41 72  1  6
 42 73  1  0
 43 74  1  6
 44 75  1  0
M  CHG  1  13   1
M  END
>  <LIG_ID>  (63) 
62

>  <_smiles>  (63) 
OC[C@H]1O[C@@H](OC2=CC(O)=CC3=[O+]C(=C(O[C@@H]4O[C@H](CO)[C@@H](O)[C@H](O)[C@H]4O)C=C23)C2=CC(O)=C(O)C(O)=C2)[C@H](O)[C@@H](O)[C@@H]1O

>  <_name>  (63) 
Delphinidin 3,5-O-diglucoside

>  <_molecular_weight>  (63) 
627.525

>  <_formula>  (63) 
C27H31O17

>  <_logP>  (63) 
-2.4393000000000016

>  <_molecular_wt_calculated>  (63) 
627.5280000000015

>  <_havy_atom_count>  (63) 
44

>  <_hydrogen_acceptors>  (63) 
16

>  <_hydrogen_donors>  (63) 
12

>  <_rotatable_bonds>  (63) 
19

>  <_amide_bonds>  (63) 
0

>  <_ring_count>  (63) 
5

$$$$
Pelargonidin 3,5-O-diglucoside
     RDKit          3D

 74 77  0  0  0  0  0  0  0  0999 V2000
    0.0000    0.0000    0.0000 Cl  0  0  0  0  0 15  0  0  0  0  0  0
    5.4479   -1.6791   -3.7704 O   0  0  0  0  0  0  0  0  0  0  0  0
    4.4232   -1.2511   -2.9112 C   0  0  0  0  0  0  0  0  0  0  0  0
    4.9521   -1.0833   -1.4746 C   0  0  1  0  0  0  0  0  0  0  0  0
    4.0259   -0.2999   -0.7235 O   0  0  0  0  0  0  0  0  0  0  0  0
    3.2798   -0.9829    0.2770 C   0  0  1  0  0  0  0  0  0  0  0  0
    2.0672   -0.2661    0.5050 O   0  0  0  0  0  0  0  0  0  0  0  0
    1.9754    1.0498    0.9915 C   0  0  0  0  0  0  0  0  0  0  0  0
    3.1140    1.7800    1.3877 C   0  0  0  0  0  0  0  0  0  0  0  0
    2.9919    3.0926    1.8544 C   0  0  0  0  0  0  0  0  0  0  0  0
    4.1333    3.7923    2.2398 O   0  0  0  0  0  0  0  0  0  0  0  0
    1.7303    3.6937    1.9292 C   0  0  0  0  0  0  0  0  0  0  0  0
    0.5902    2.9851    1.5428 C   0  0  0  0  0  0  0  0  0  0  0  0
   -0.5995    3.5709    1.6082 O   0  0  0  0  0  3  0  0  0  0  0  0
   -1.7310    2.9673    1.2506 C   0  0  0  0  0  0  0  0  0  0  0  0
   -1.7092    1.6280    0.8065 C   0  0  0  0  0  0  0  0  0  0  0  0
   -2.9262    0.9879    0.4982 O   0  0  0  0  0  0  0  0  0  0  0  0
   -3.1058   -0.3162   -0.0630 C   0  0  2  0  0  0  0  0  0  0  0  0
   -2.4503   -1.2817    0.7406 O   0  0  0  0  0  0  0  0  0  0  0  0
   -2.7484   -2.5935    0.2942 C   0  0  2  0  0  0  0  0  0  0  0  0
   -2.1435   -3.5838    1.3037 C   0  0  0  0  0  0  0  0  0  0  0  0
   -2.5671   -4.8960    1.0477 O   0  0  0  0  0  0  0  0  0  0  0  0
   -2.1812   -2.8139   -1.1295 C   0  0  1  0  0  0  0  0  0  0  0  0
   -2.5022   -4.1069   -1.5759 O   0  0  0  0  0  0  0  0  0  0  0  0
   -2.7861   -1.7738   -2.0931 C   0  0  2  0  0  0  0  0  0  0  0  0
   -2.1496   -1.8505   -3.3433 O   0  0  0  0  0  0  0  0  0  0  0  0
   -2.6128   -0.3558   -1.5248 C   0  0  1  0  0  0  0  0  0  0  0  0
   -3.3591    0.5599   -2.2847 O   0  0  0  0  0  0  0  0  0  0  0  0
   -0.4647    0.9796    0.7240 C   0  0  0  0  0  0  0  0  0  0  0  0
    0.7066    1.6583    1.0818 C   0  0  0  0  0  0  0  0  0  0  0  0
   -2.9909    3.7381    1.3485 C   0  0  0  0  0  0  0  0  0  0  0  0
   -3.2126    4.5630    2.4636 C   0  0  0  0  0  0  0  0  0  0  0  0
   -4.3866    5.3157    2.5650 C   0  0  0  0  0  0  0  0  0  0  0  0
   -5.3447    5.2659    1.5481 C   0  0  0  0  0  0  0  0  0  0  0  0
   -6.5100    6.0204    1.6629 O   0  0  0  0  0  0  0  0  0  0  0  0
   -5.1216    4.4623    0.4224 C   0  0  0  0  0  0  0  0  0  0  0  0
   -3.9489    3.7082    0.3185 C   0  0  0  0  0  0  0  0  0  0  0  0
    2.9225   -2.4268   -0.1100 C   0  0  2  0  0  0  0  0  0  0  0  0
    2.1087   -3.0060    0.8788 O   0  0  0  0  0  0  0  0  0  0  0  0
    4.2094   -3.2570   -0.2467 C   0  0  1  0  0  0  0  0  0  0  0  0
    3.9685   -4.4153   -1.0080 O   0  0  0  0  0  0  0  0  0  0  0  0
    5.3914   -2.4345   -0.8283 C   0  0  2  0  0  0  0  0  0  0  0  0
    6.3744   -2.2128    0.1551 O   0  0  0  0  0  0  0  0  0  0  0  0
    5.3303   -2.6559   -3.9023 H   0  0  0  0  0  0  0  0  0  0  0  0
    3.5521   -1.9405   -2.9484 H   0  0  0  0  0  0  0  0  0  0  0  0
    4.0651   -0.2645   -3.2752 H   0  0  0  0  0  0  0  0  0  0  0  0
    5.8732   -0.4661   -1.5673 H   0  0  0  0  0  0  0  0  0  0  0  0
    3.8541   -0.9997    1.2285 H   0  0  0  0  0  0  0  0  0  0  0  0
    4.1010    1.3415    1.3392 H   0  0  0  0  0  0  0  0  0  0  0  0
    4.0808    4.7447    2.5818 H   0  0  0  0  0  0  0  0  0  0  0  0
    1.6354    4.7120    2.2856 H   0  0  0  0  0  0  0  0  0  0  0  0
   -4.2040   -0.5072   -0.0558 H   0  0  0  0  0  0  0  0  0  0  0  0
   -3.8523   -2.7563    0.2895 H   0  0  0  0  0  0  0  0  0  0  0  0
   -1.0356   -3.5480    1.2523 H   0  0  0  0  0  0  0  0  0  0  0  0
   -2.4353   -3.2896    2.3381 H   0  0  0  0  0  0  0  0  0  0  0  0
   -3.5072   -4.9581    1.3607 H   0  0  0  0  0  0  0  0  0  0  0  0
   -1.0727   -2.6788   -1.0934 H   0  0  0  0  0  0  0  0  0  0  0  0
   -1.8108   -4.3641   -2.2402 H   0  0  0  0  0  0  0  0  0  0  0  0
   -3.8793   -1.9744   -2.2070 H   0  0  0  0  0  0  0  0  0  0  0  0
   -2.5937   -2.5794   -3.8504 H   0  0  0  0  0  0  0  0  0  0  0  0
   -1.5346   -0.0839   -1.5637 H   0  0  0  0  0  0  0  0  0  0  0  0
   -2.8356    0.7480   -3.1071 H   0  0  0  0  0  0  0  0  0  0  0  0
   -0.3978   -0.0467    0.3988 H   0  0  0  0  0  0  0  0  0  0  0  0
   -2.4820    4.6148    3.2617 H   0  0  0  0  0  0  0  0  0  0  0  0
   -4.5510    5.9397    3.4342 H   0  0  0  0  0  0  0  0  0  0  0  0
   -7.2226    6.0068    0.9425 H   0  0  0  0  0  0  0  0  0  0  0  0
   -5.8517    4.4282   -0.3763 H   0  0  0  0  0  0  0  0  0  0  0  0
   -3.7822    3.1221   -0.5763 H   0  0  0  0  0  0  0  0  0  0  0  0
    2.3731   -2.4122   -1.0792 H   0  0  0  0  0  0  0  0  0  0  0  0
    1.1812   -2.6960    0.7093 H   0  0  0  0  0  0  0  0  0  0  0  0
    4.5012   -3.5999    0.7716 H   0  0  0  0  0  0  0  0  0  0  0  0
    3.7476   -4.1293   -1.9324 H   0  0  0  0  0  0  0  0  0  0  0  0
    5.8917   -3.0472   -1.6085 H   0  0  0  0  0  0  0  0  0  0  0  0
    6.0008   -1.5920    0.8311 H   0  0  0  0  0  0  0  0  0  0  0  0
  2  3  1  0
  3  4  1  0
  4  5  1  0
  5  6  1  0
  6  7  1  0
  7  8  1  0
  8  9  2  0
  9 10  1  0
 10 11  1  0
 10 12  2  0
 12 13  1  0
 13 14  2  0
 14 15  1  0
 15 16  2  0
 16 17  1  0
 17 18  1  0
 18 19  1  0
 19 20  1  0
 20 21  1  0
 21 22  1  0
 20 23  1  0
 23 24  1  0
 23 25  1  0
 25 26  1  0
 25 27  1  0
 27 28  1  0
 16 29  1  0
 29 30  2  0
 15 31  1  0
 31 32  2  0
 32 33  1  0
 33 34  2  0
 34 35  1  0
 34 36  1  0
 36 37  2  0
  6 38  1  0
 38 39  1  0
 38 40  1  0
 40 41  1  0
 40 42  1  0
 42 43  1  0
 42  4  1  0
 30  8  1  0
 37 31  1  0
 30 13  1  0
 27 18  1  0
  2 44  1  0
  3 45  1  0
  3 46  1  0
  4 47  1  6
  6 48  1  1
  9 49  1  0
 11 50  1  0
 12 51  1  0
 18 52  1  6
 20 53  1  6
 21 54  1  0
 21 55  1  0
 22 56  1  0
 23 57  1  1
 24 58  1  0
 25 59  1  6
 26 60  1  0
 27 61  1  1
 28 62  1  0
 29 63  1  0
 32 64  1  0
 33 65  1  0
 35 66  1  0
 36 67  1  0
 37 68  1  0
 38 69  1  6
 39 70  1  0
 40 71  1  1
 41 72  1  0
 42 73  1  6
 43 74  1  0
M  CHG  2   1  -1  14   1
M  END
>  <LIG_ID>  (64) 
63

>  <_smiles>  (64) 
[Cl-].OC[C@H]1O[C@@H](OC2=CC(O)=CC3=[O+]C(=C(O[C@@H]4O[C@H](CO)[C@@H](O)[C@H](O)[C@H]4O)C=C23)C2=CC=C(O)C=C2)[C@H](O)[C@@H](O)[C@@H]1O

>  <_name>  (64) 
Pelargonidin 3,5-O-diglucoside

>  <_molecular_weight>  (64) 
630.979

>  <_formula>  (64) 
C27H31ClO15

>  <_logP>  (64) 
-4.846499999999989

>  <_molecular_wt_calculated>  (64) 
630.9830000000015

>  <_havy_atom_count>  (64) 
43

>  <_hydrogen_acceptors>  (64) 
14

>  <_hydrogen_donors>  (64) 
10

>  <_rotatable_bonds>  (64) 
17

>  <_amide_bonds>  (64) 
0

>  <_ring_count>  (64) 
5

$$$$
Malvidin 3-O-(6''-caffeoyl-glucoside)
     RDKit          3D

 78 82  0  0  0  0  0  0  0  0999 V2000
    1.3891    0.2829   -0.0848 C   0  0  1  0  0  0  0  0  0  0  0  0
    2.1977   -0.2153    1.1195 C   0  0  0  0  0  0  0  0  0  0  0  0
    3.4956   -0.6318    0.7069 O   0  0  0  0  0  0  0  0  0  0  0  0
    4.4512   -1.1303    1.5983 C   0  0  0  0  0  0  0  0  0  0  0  0
    4.1783   -1.2529    2.8232 O   0  0  0  0  0  0  0  0  0  0  0  0
    5.7864   -1.5180    1.1179 C   0  0  0  0  0  0  0  0  0  0  0  0
    6.1447   -1.3746   -0.1653 C   0  0  0  0  0  0  0  0  0  0  0  0
    7.4833   -1.7366   -0.6932 C   0  0  0  0  0  0  0  0  0  0  0  0
    8.3282   -2.6622   -0.0482 C   0  0  0  0  0  0  0  0  0  0  0  0
    9.5793   -2.9831   -0.5885 C   0  0  0  0  0  0  0  0  0  0  0  0
   10.3898   -3.9010    0.0791 O   0  0  0  0  0  0  0  0  0  0  0  0
    9.9979   -2.3854   -1.7886 C   0  0  0  0  0  0  0  0  0  0  0  0
   11.2442   -2.6986   -2.3289 O   0  0  0  0  0  0  0  0  0  0  0  0
    9.1556   -1.4769   -2.4412 C   0  0  0  0  0  0  0  0  0  0  0  0
    7.9070   -1.1598   -1.9011 C   0  0  0  0  0  0  0  0  0  0  0  0
    0.0533    0.4868    0.3436 O   0  0  0  0  0  0  0  0  0  0  0  0
   -0.7840    0.7800   -0.7606 C   0  0  0  0  0  0  0  0  0  0  0  0
   -2.1346    0.8589   -0.3108 O   0  0  0  0  0  0  0  0  0  0  0  0
   -2.8612   -0.1978    0.2634 C   0  0  0  0  0  0  0  0  0  0  0  0
   -2.3423   -1.5004    0.3492 C   0  0  0  0  0  0  0  0  0  0  0  0
   -3.1238   -2.5289    0.8872 C   0  0  0  0  0  0  0  0  0  0  0  0
   -4.4266   -2.2152    1.3274 C   0  0  0  0  0  0  0  0  0  0  0  0
   -5.2439   -3.2160    1.8619 C   0  0  0  0  0  0  0  0  0  0  0  0
   -4.7724   -4.5311    1.9645 C   0  0  0  0  0  0  0  0  0  0  0  0
   -5.5796   -5.5341    2.4964 O   0  0  0  0  0  0  0  0  0  0  0  0
   -3.4801   -4.8442    1.5305 C   0  0  0  0  0  0  0  0  0  0  0  0
   -2.6496   -3.8510    0.9907 C   0  0  0  0  0  0  0  0  0  0  0  0
   -1.3629   -4.1772    0.5608 O   0  0  0  0  0  0  0  0  0  0  0  0
   -4.8836   -0.9711    1.2395 O   0  0  0  0  0  3  0  0  0  0  0  0
   -4.1654    0.0367    0.7477 C   0  0  0  0  0  0  0  0  0  0  0  0
   -4.7820    1.3834    0.7139 C   0  0  0  0  0  0  0  0  0  0  0  0
   -6.1293    1.5154    0.3504 C   0  0  0  0  0  0  0  0  0  0  0  0
   -6.7432    2.7808    0.3180 C   0  0  0  0  0  0  0  0  0  0  0  0
   -8.0869    2.9491   -0.0528 O   0  0  0  0  0  0  0  0  0  0  0  0
   -8.9603    1.8883   -0.4268 C   0  0  0  0  0  0  0  0  0  0  0  0
   -6.0004    3.9184    0.6636 C   0  0  0  0  0  0  0  0  0  0  0  0
   -6.6217    5.1676    0.6196 O   0  0  0  0  0  0  0  0  0  0  0  0
   -4.6533    3.7999    1.0505 C   0  0  0  0  0  0  0  0  0  0  0  0
   -3.9425    4.9614    1.3941 O   0  0  0  0  0  0  0  0  0  0  0  0
   -2.5692    4.9876    1.7707 C   0  0  0  0  0  0  0  0  0  0  0  0
   -4.0560    2.5266    1.0853 C   0  0  0  0  0  0  0  0  0  0  0  0
   -0.3890    2.1380   -1.3685 C   0  0  2  0  0  0  0  0  0  0  0  0
   -1.2295    2.4693   -2.4462 O   0  0  0  0  0  0  0  0  0  0  0  0
    1.0886    2.1104   -1.8067 C   0  0  1  0  0  0  0  0  0  0  0  0
    1.5033    3.4004   -2.1754 O   0  0  0  0  0  0  0  0  0  0  0  0
    1.9737    1.6000   -0.6547 C   0  0  2  0  0  0  0  0  0  0  0  0
    3.2772    1.3785   -1.1302 O   0  0  0  0  0  0  0  0  0  0  0  0
    1.4293   -0.5164   -0.8627 H   0  0  0  0  0  0  0  0  0  0  0  0
    1.6693   -1.0801    1.5779 H   0  0  0  0  0  0  0  0  0  0  0  0
    2.2829    0.5901    1.8819 H   0  0  0  0  0  0  0  0  0  0  0  0
    6.4866   -1.8991    1.8486 H   0  0  0  0  0  0  0  0  0  0  0  0
    5.4410   -0.9300   -0.8599 H   0  0  0  0  0  0  0  0  0  0  0  0
    8.0204   -3.1608    0.8605 H   0  0  0  0  0  0  0  0  0  0  0  0
   11.3021   -4.1680   -0.2708 H   0  0  0  0  0  0  0  0  0  0  0  0
   11.5676   -2.2814   -3.1939 H   0  0  0  0  0  0  0  0  0  0  0  0
    9.4677   -1.0152   -3.3694 H   0  0  0  0  0  0  0  0  0  0  0  0
    7.2731   -0.4539   -2.4242 H   0  0  0  0  0  0  0  0  0  0  0  0
   -0.7177   -0.0150   -1.5403 H   0  0  0  0  0  0  0  0  0  0  0  0
   -1.3461   -1.7171   -0.0111 H   0  0  0  0  0  0  0  0  0  0  0  0
   -6.2438   -2.9710    2.1983 H   0  0  0  0  0  0  0  0  0  0  0  0
   -6.5203   -5.3410    2.8200 H   0  0  0  0  0  0  0  0  0  0  0  0
   -3.1217   -5.8627    1.6129 H   0  0  0  0  0  0  0  0  0  0  0  0
   -1.0041   -5.1226    0.6276 H   0  0  0  0  0  0  0  0  0  0  0  0
   -6.6896    0.6300    0.0802 H   0  0  0  0  0  0  0  0  0  0  0  0
   -8.5674    1.3694   -1.3266 H   0  0  0  0  0  0  0  0  0  0  0  0
   -9.9584    2.3083   -0.6669 H   0  0  0  0  0  0  0  0  0  0  0  0
   -9.0698    1.1697    0.4128 H   0  0  0  0  0  0  0  0  0  0  0  0
   -6.1355    6.0233    0.8588 H   0  0  0  0  0  0  0  0  0  0  0  0
   -2.2674    6.0367    1.9669 H   0  0  0  0  0  0  0  0  0  0  0  0
   -1.9400    4.5845    0.9492 H   0  0  0  0  0  0  0  0  0  0  0  0
   -2.4156    4.3952    2.6973 H   0  0  0  0  0  0  0  0  0  0  0  0
   -3.0345    2.4188    1.4220 H   0  0  0  0  0  0  0  0  0  0  0  0
   -0.5119    2.9187   -0.5850 H   0  0  0  0  0  0  0  0  0  0  0  0
   -1.1273    1.7630   -3.1367 H   0  0  0  0  0  0  0  0  0  0  0  0
    1.2062    1.4123   -2.6704 H   0  0  0  0  0  0  0  0  0  0  0  0
    1.1558    3.5636   -3.0909 H   0  0  0  0  0  0  0  0  0  0  0  0
    1.9864    2.3624    0.1612 H   0  0  0  0  0  0  0  0  0  0  0  0
    3.7313    2.2611   -1.1503 H   0  0  0  0  0  0  0  0  0  0  0  0
  1  2  1  0
  2  3  1  0
  3  4  1  0
  4  5  2  0
  4  6  1  0
  6  7  2  0
  7  8  1  0
  8  9  2  0
  9 10  1  0
 10 11  1  0
 10 12  2  0
 12 13  1  0
 12 14  1  0
 14 15  2  0
  1 16  1  0
 16 17  1  0
 17 18  1  0
 18 19  1  0
 19 20  2  0
 20 21  1  0
 21 22  2  0
 22 23  1  0
 23 24  2  0
 24 25  1  0
 24 26  1  0
 26 27  2  0
 27 28  1  0
 22 29  1  0
 29 30  2  0
 30 31  1  0
 31 32  2  0
 32 33  1  0
 33 34  1  0
 34 35  1  0
 33 36  2  0
 36 37  1  0
 36 38  1  0
 38 39  1  0
 39 40  1  0
 38 41  2  0
 17 42  1  0
 42 43  1  0
 42 44  1  0
 44 45  1  0
 44 46  1  0
 46 47  1  0
 46  1  1  0
 15  8  1  0
 30 19  1  0
 41 31  1  0
 27 21  1  0
  1 48  1  6
  2 49  1  0
  2 50  1  0
  6 51  1  0
  7 52  1  0
  9 53  1  0
 11 54  1  0
 13 55  1  0
 14 56  1  0
 15 57  1  0
 17 58  1  0
 20 59  1  0
 23 60  1  0
 25 61  1  0
 26 62  1  0
 28 63  1  0
 32 64  1  0
 35 65  1  0
 35 66  1  0
 35 67  1  0
 37 68  1  0
 40 69  1  0
 40 70  1  0
 40 71  1  0
 41 72  1  0
 42 73  1  1
 43 74  1  0
 44 75  1  6
 45 76  1  0
 46 77  1  1
 47 78  1  0
M  CHG  1  29   1
M  END
>  <LIG_ID>  (65) 
64

>  <_smiles>  (65) 
[H][C@]1(COC(=O)\C=C\C2=CC(O)=C(O)C=C2)OC(OC2=CC3=C(C=C(O)C=C3O)[O+]=C2C2=CC(OC)=C(O)C(OC)=C2)[C@]([H])(O)[C@@]([H])(O)[C@]1([H])O

>  <_name>  (65) 
Malvidin 3-O-(6''-caffeoyl-glucoside)

>  <_molecular_weight>  (65) 
655.58

>  <_formula>  (65) 
C32H31O15

>  <_logP>  (65) 
2.3691000000000026

>  <_molecular_wt_calculated>  (65) 
655.5850000000015

>  <_havy_atom_count>  (65) 
47

>  <_hydrogen_acceptors>  (65) 
14

>  <_hydrogen_donors>  (65) 
8

>  <_rotatable_bonds>  (65) 
19

>  <_amide_bonds>  (65) 
0

>  <_ring_count>  (65) 
5

$$$$
Cyanidin 3-O-(6''-dioxalyl-glucoside)
     RDKit          3D

 62 65  0  0  0  0  0  0  0  0999 V2000
    2.0228   -2.7112    2.7496 O   0  0  0  0  0  0  0  0  0  0  0  0
    1.8459   -1.8560    1.6464 C   0  0  0  0  0  0  0  0  0  0  0  0
    2.4465   -2.4589    0.3592 C   0  0  0  0  0  0  0  0  0  0  0  0
    3.8414   -2.5738    0.4807 O   0  0  0  0  0  0  0  0  0  0  0  0
    2.0840   -1.6009   -0.8800 C   0  0  0  0  0  0  0  0  0  0  0  0
    2.9064   -0.3008   -1.0254 C   0  0  0  0  0  0  0  0  0  0  0  0
    4.2339   -0.6060   -1.4439 O   0  0  0  0  0  0  0  0  0  0  0  0
    5.2030    0.3783   -1.6589 C   0  0  0  0  0  0  0  0  0  0  0  0
    4.9273    1.5978   -1.4935 O   0  0  0  0  0  0  0  0  0  0  0  0
    6.5511   -0.0115   -2.0789 C   0  0  0  0  0  0  0  0  0  0  0  0
    6.8210   -1.2325   -2.2407 O   0  0  0  0  0  0  0  0  0  0  0  0
    7.5183    0.9803   -2.2933 O   0  0  0  0  0  0  0  0  0  0  0  0
    8.8398    0.7406   -2.6946 C   0  0  0  0  0  0  0  0  0  0  0  0
    9.2585   -0.4315   -2.8964 O   0  0  0  0  0  0  0  0  0  0  0  0
    9.7501    1.8732   -2.8826 C   0  0  0  0  0  0  0  0  0  0  0  0
   11.0637    1.6566   -3.2801 O   0  0  0  0  0  1  0  0  0  0  0  0
    9.3458    3.0489   -2.6847 O   0  0  0  0  0  0  0  0  0  0  0  0
    0.6837   -1.3616   -0.9656 O   0  0  0  0  0  0  0  0  0  0  0  0
    0.1737   -0.6679    0.1632 C   0  0  0  0  0  0  0  0  0  0  0  0
   -1.2176   -0.4320   -0.0622 O   0  0  0  0  0  0  0  0  0  0  0  0
   -2.0498    0.4336    0.6723 C   0  0  0  0  0  0  0  0  0  0  0  0
   -1.5469    1.3421    1.6200 C   0  0  0  0  0  0  0  0  0  0  0  0
   -2.4148    2.2209    2.2890 C   0  0  0  0  0  0  0  0  0  0  0  0
   -1.9782    3.1628    3.2580 C   0  0  0  0  0  0  0  0  0  0  0  0
   -0.6444    3.2903    3.6573 O   0  0  0  0  0  0  0  0  0  0  0  0
   -2.9131    4.0145    3.8595 C   0  0  0  0  0  0  0  0  0  0  0  0
   -4.2692    3.9452    3.5222 C   0  0  0  0  0  0  0  0  0  0  0  0
   -5.1949    4.7945    4.1244 O   0  0  0  0  0  0  0  0  0  0  0  0
   -4.7021    3.0173    2.5750 C   0  0  0  0  0  0  0  0  0  0  0  0
   -3.7887    2.1579    1.9590 C   0  0  0  0  0  0  0  0  0  0  0  0
   -4.2293    1.2835    1.0626 O   0  0  0  0  0  3  0  0  0  0  0  0
   -3.4370    0.4252    0.4276 C   0  0  0  0  0  0  0  0  0  0  0  0
   -4.0561   -0.5093   -0.5394 C   0  0  0  0  0  0  0  0  0  0  0  0
   -3.6998   -1.8692   -0.5725 C   0  0  0  0  0  0  0  0  0  0  0  0
   -4.3116   -2.7377   -1.4800 C   0  0  0  0  0  0  0  0  0  0  0  0
   -5.2970   -2.2641   -2.3559 C   0  0  0  0  0  0  0  0  0  0  0  0
   -5.9083   -3.1269   -3.2638 O   0  0  0  0  0  0  0  0  0  0  0  0
   -5.6741   -0.9160   -2.3161 C   0  0  0  0  0  0  0  0  0  0  0  0
   -6.6600   -0.4490   -3.1836 O   0  0  0  0  0  0  0  0  0  0  0  0
   -5.0598   -0.0447   -1.4049 C   0  0  0  0  0  0  0  0  0  0  0  0
    0.3590   -1.5003    1.4541 C   0  0  0  0  0  0  0  0  0  0  0  0
   -0.4582   -2.6475    1.4469 O   0  0  0  0  0  0  0  0  0  0  0  0
    1.6278   -3.5928    2.5213 H   0  0  0  0  0  0  0  0  0  0  0  0
    2.3903   -0.9140    1.8749 H   0  0  0  0  0  0  0  0  0  0  0  0
    2.0109   -3.4723    0.1929 H   0  0  0  0  0  0  0  0  0  0  0  0
    4.0178   -3.3615    1.0586 H   0  0  0  0  0  0  0  0  0  0  0  0
    2.3397   -2.2204   -1.7680 H   0  0  0  0  0  0  0  0  0  0  0  0
    2.4279    0.3467   -1.7924 H   0  0  0  0  0  0  0  0  0  0  0  0
    2.9456    0.2579   -0.0670 H   0  0  0  0  0  0  0  0  0  0  0  0
    0.6830    0.3142    0.2560 H   0  0  0  0  0  0  0  0  0  0  0  0
   -0.4899    1.3698    1.8090 H   0  0  0  0  0  0  0  0  0  0  0  0
    0.1133    2.7174    3.3158 H   0  0  0  0  0  0  0  0  0  0  0  0
   -2.5806    4.7342    4.5974 H   0  0  0  0  0  0  0  0  0  0  0  0
   -4.9138    5.4794    4.8163 H   0  0  0  0  0  0  0  0  0  0  0  0
   -5.7526    2.9638    2.3162 H   0  0  0  0  0  0  0  0  0  0  0  0
   -2.9670   -2.2666    0.1175 H   0  0  0  0  0  0  0  0  0  0  0  0
   -4.0250   -3.7816   -1.4958 H   0  0  0  0  0  0  0  0  0  0  0  0
   -5.6572   -4.1073   -3.3147 H   0  0  0  0  0  0  0  0  0  0  0  0
   -6.9548    0.5205   -3.1787 H   0  0  0  0  0  0  0  0  0  0  0  0
   -5.3567    0.9970   -1.3812 H   0  0  0  0  0  0  0  0  0  0  0  0
    0.0509   -0.8836    2.3243 H   0  0  0  0  0  0  0  0  0  0  0  0
   -0.2748   -3.1551    0.6150 H   0  0  0  0  0  0  0  0  0  0  0  0
  1  2  1  0
  2  3  1  0
  3  4  1  0
  3  5  1  0
  5  6  1  0
  6  7  1  0
  7  8  1  0
  8  9  2  0
  8 10  1  0
 10 11  2  0
 10 12  1  0
 12 13  1  0
 13 14  2  0
 13 15  1  0
 15 16  1  0
 15 17  2  0
  5 18  1  0
 18 19  1  0
 19 20  1  0
 20 21  1  0
 21 22  2  0
 22 23  1  0
 23 24  2  0
 24 25  1  0
 24 26  1  0
 26 27  2  0
 27 28  1  0
 27 29  1  0
 29 30  2  0
 30 31  1  0
 31 32  2  0
 32 33  1  0
 33 34  2  0
 34 35  1  0
 35 36  2  0
 36 37  1  0
 36 38  1  0
 38 39  1  0
 38 40  2  0
 19 41  1  0
 41 42  1  0
 41  2  1  0
 32 21  1  0
 40 33  1  0
 30 23  1  0
  1 43  1  0
  2 44  1  0
  3 45  1  0
  4 46  1  0
  5 47  1  0
  6 48  1  0
  6 49  1  0
 19 50  1  0
 22 51  1  0
 25 52  1  0
 26 53  1  0
 28 54  1  0
 29 55  1  0
 34 56  1  0
 35 57  1  0
 37 58  1  0
 39 59  1  0
 40 60  1  0
 41 61  1  0
 42 62  1  0
M  CHG  2  16  -1  31   1
M  END
>  <LIG_ID>  (66) 
65

>  <_smiles>  (66) 
OC1C(O)C(COC(=O)C(=O)OC(=O)C([O-])=O)OC(OC2=CC3=C(O)C=C(O)C=C3[O+]=C2C2=CC=C(O)C(O)=C2)C1O

>  <_name>  (66) 
Cyanidin 3-O-(6''-dioxalyl-glucoside)

>  <_molecular_weight>  (66) 
592.416

>  <_formula>  (66) 
C25H20O17

>  <_logP>  (66) 
-2.2473999999999994

>  <_molecular_wt_calculated>  (66) 
592.4180000000011

>  <_havy_atom_count>  (66) 
42

>  <_hydrogen_acceptors>  (66) 
16

>  <_hydrogen_donors>  (66) 
7

>  <_rotatable_bonds>  (66) 
12

>  <_amide_bonds>  (66) 
0

>  <_ring_count>  (66) 
4

$$$$
Delphinidin 3-O-glucosyl-glucoside
     RDKit          3D

 75 79  0  0  0  0  0  0  0  0999 V2000
    0.4911   -2.6075   -0.9286 O   0  0  0  0  0  0  0  0  0  0  0  0
    1.4575   -2.5024   -1.9393 C   0  0  0  0  0  0  0  0  0  0  0  0
    2.7226   -1.7980   -1.4269 C   0  0  1  0  0  0  0  0  0  0  0  0
    2.3675   -0.5154   -0.9394 O   0  0  0  0  0  0  0  0  0  0  0  0
    3.5305    0.2504   -0.6577 C   0  0  1  0  0  0  0  0  0  0  0  0
    3.1428    1.5500   -0.2605 O   0  0  0  0  0  0  0  0  0  0  0  0
    2.6404    2.2952   -1.3567 C   0  0  0  0  0  0  0  0  0  0  0  0
    1.3410    2.9989   -0.9493 C   0  0  1  0  0  0  0  0  0  0  0  0
    0.3938    2.0027   -0.5931 O   0  0  0  0  0  0  0  0  0  0  0  0
   -0.7916    2.5990   -0.1035 C   0  0  1  0  0  0  0  0  0  0  0  0
   -1.8489    1.6356   -0.0753 O   0  0  0  0  0  0  0  0  0  0  0  0
   -1.8158    0.3488    0.4973 C   0  0  0  0  0  0  0  0  0  0  0  0
   -0.7013   -0.1430    1.1980 C   0  0  0  0  0  0  0  0  0  0  0  0
   -0.7109   -1.4480    1.7025 C   0  0  0  0  0  0  0  0  0  0  0  0
    0.3800   -1.9816    2.4153 C   0  0  0  0  0  0  0  0  0  0  0  0
    1.5022   -1.1984    2.6826 O   0  0  0  0  0  0  0  0  0  0  0  0
    0.3330   -3.3103    2.8614 C   0  0  0  0  0  0  0  0  0  0  0  0
   -0.7921   -4.1030    2.6136 C   0  0  0  0  0  0  0  0  0  0  0  0
   -0.8159   -5.4208    3.0644 O   0  0  0  0  0  0  0  0  0  0  0  0
   -1.8839   -3.5673    1.9187 C   0  0  0  0  0  0  0  0  0  0  0  0
   -1.8487   -2.2454    1.4645 C   0  0  0  0  0  0  0  0  0  0  0  0
   -2.8908   -1.7479    0.8096 O   0  0  0  0  0  3  0  0  0  0  0  0
   -2.9310   -0.5020    0.3415 C   0  0  0  0  0  0  0  0  0  0  0  0
   -4.1593   -0.0604   -0.3565 C   0  0  0  0  0  0  0  0  0  0  0  0
   -4.7993   -0.9332   -1.2461 C   0  0  0  0  0  0  0  0  0  0  0  0
   -5.9718   -0.5440   -1.9054 C   0  0  0  0  0  0  0  0  0  0  0  0
   -6.5928   -1.4132   -2.8012 O   0  0  0  0  0  0  0  0  0  0  0  0
   -6.5290    0.7210   -1.6704 C   0  0  0  0  0  0  0  0  0  0  0  0
   -7.6952    1.0627   -2.3599 O   0  0  0  0  0  0  0  0  0  0  0  0
   -5.9034    1.5987   -0.7531 C   0  0  0  0  0  0  0  0  0  0  0  0
   -6.4111    2.8648   -0.4541 O   0  0  0  0  0  0  0  0  0  0  0  0
   -4.7302    1.1974   -0.1036 C   0  0  0  0  0  0  0  0  0  0  0  0
   -0.5714    3.2326    1.2927 C   0  0  2  0  0  0  0  0  0  0  0  0
   -1.3742    4.3812    1.4019 O   0  0  0  0  0  0  0  0  0  0  0  0
    0.9169    3.6012    1.5116 C   0  0  1  0  0  0  0  0  0  0  0  0
    1.5974    2.4918    2.0421 O   0  0  0  0  0  0  0  0  0  0  0  0
    1.5836    4.0439    0.1923 C   0  0  2  0  0  0  0  0  0  0  0  0
    1.0570    5.2916   -0.1827 O   0  0  0  0  0  0  0  0  0  0  0  0
    4.3177   -0.3927    0.5037 C   0  0  2  0  0  0  0  0  0  0  0  0
    5.4705    0.3556    0.8018 O   0  0  0  0  0  0  0  0  0  0  0  0
    4.6806   -1.8555    0.1707 C   0  0  1  0  0  0  0  0  0  0  0  0
    5.1961   -2.4957    1.3091 O   0  0  0  0  0  0  0  0  0  0  0  0
    3.4281   -2.6101   -0.3120 C   0  0  2  0  0  0  0  0  0  0  0  0
    3.7682   -3.9020   -0.7525 O   0  0  0  0  0  0  0  0  0  0  0  0
    0.6402   -3.4774   -0.4745 H   0  0  0  0  0  0  0  0  0  0  0  0
    1.7089   -3.5035   -2.3602 H   0  0  0  0  0  0  0  0  0  0  0  0
    1.0283   -1.9014   -2.7690 H   0  0  0  0  0  0  0  0  0  0  0  0
    3.4056   -1.7030   -2.3043 H   0  0  0  0  0  0  0  0  0  0  0  0
    4.1997    0.3117   -1.5525 H   0  0  0  0  0  0  0  0  0  0  0  0
    2.4224    1.6808   -2.2642 H   0  0  0  0  0  0  0  0  0  0  0  0
    3.3977    3.0527   -1.6534 H   0  0  0  0  0  0  0  0  0  0  0  0
    0.9781    3.5265   -1.8623 H   0  0  0  0  0  0  0  0  0  0  0  0
   -1.1261    3.3954   -0.8101 H   0  0  0  0  0  0  0  0  0  0  0  0
    0.1720    0.4713    1.3424 H   0  0  0  0  0  0  0  0  0  0  0  0
    2.2950   -1.5652    3.1962 H   0  0  0  0  0  0  0  0  0  0  0  0
    1.1719   -3.7285    3.4035 H   0  0  0  0  0  0  0  0  0  0  0  0
   -1.6155   -6.0218    2.9018 H   0  0  0  0  0  0  0  0  0  0  0  0
   -2.7583   -4.1777    1.7297 H   0  0  0  0  0  0  0  0  0  0  0  0
   -4.3797   -1.9133   -1.4397 H   0  0  0  0  0  0  0  0  0  0  0  0
   -6.2171   -2.3343   -2.9945 H   0  0  0  0  0  0  0  0  0  0  0  0
   -8.1663    1.9512   -2.2696 H   0  0  0  0  0  0  0  0  0  0  0  0
   -7.2556    3.2452   -0.8561 H   0  0  0  0  0  0  0  0  0  0  0  0
   -4.2793    1.8659    0.6194 H   0  0  0  0  0  0  0  0  0  0  0  0
   -0.8775    2.5075    2.0821 H   0  0  0  0  0  0  0  0  0  0  0  0
   -1.4548    4.5878    2.3699 H   0  0  0  0  0  0  0  0  0  0  0  0
    0.9756    4.4390    2.2466 H   0  0  0  0  0  0  0  0  0  0  0  0
    2.4488    2.8290    2.4258 H   0  0  0  0  0  0  0  0  0  0  0  0
    2.6745    4.1696    0.3918 H   0  0  0  0  0  0  0  0  0  0  0  0
    1.6776    5.6731   -0.8576 H   0  0  0  0  0  0  0  0  0  0  0  0
    3.6686   -0.3866    1.4049 H   0  0  0  0  0  0  0  0  0  0  0  0
    6.0446    0.3609   -0.0085 H   0  0  0  0  0  0  0  0  0  0  0  0
    5.4389   -1.8685   -0.6485 H   0  0  0  0  0  0  0  0  0  0  0  0
    6.1369   -2.1942    1.4070 H   0  0  0  0  0  0  0  0  0  0  0  0
    2.7326   -2.7129    0.5497 H   0  0  0  0  0  0  0  0  0  0  0  0
    4.3624   -3.8047   -1.5422 H   0  0  0  0  0  0  0  0  0  0  0  0
  1  2  1  0
  2  3  1  0
  3  4  1  0
  4  5  1  0
  5  6  1  0
  6  7  1  0
  7  8  1  0
  8  9  1  0
  9 10  1  0
 10 11  1  0
 11 12  1  0
 12 13  2  0
 13 14  1  0
 14 15  2  0
 15 16  1  0
 15 17  1  0
 17 18  2  0
 18 19  1  0
 18 20  1  0
 20 21  2  0
 21 22  1  0
 22 23  2  0
 23 24  1  0
 24 25  2  0
 25 26  1  0
 26 27  1  0
 26 28  2  0
 28 29  1  0
 28 30  1  0
 30 31  1  0
 30 32  2  0
 10 33  1  0
 33 34  1  0
 33 35  1  0
 35 36  1  0
 35 37  1  0
 37 38  1  0
  5 39  1  0
 39 40  1  0
 39 41  1  0
 41 42  1  0
 41 43  1  0
 43 44  1  0
 43  3  1  0
 37  8  1  0
 23 12  1  0
 32 24  1  0
 21 14  1  0
  1 45  1  0
  2 46  1  0
  2 47  1  0
  3 48  1  6
  5 49  1  6
  7 50  1  0
  7 51  1  0
  8 52  1  6
 10 53  1  6
 13 54  1  0
 16 55  1  0
 17 56  1  0
 19 57  1  0
 20 58  1  0
 25 59  1  0
 27 60  1  0
 29 61  1  0
 31 62  1  0
 32 63  1  0
 33 64  1  1
 34 65  1  0
 35 66  1  1
 36 67  1  0
 37 68  1  1
 38 69  1  0
 39 70  1  1
 40 71  1  0
 41 72  1  6
 42 73  1  0
 43 74  1  1
 44 75  1  0
M  CHG  1  22   1
M  END
>  <LIG_ID>  (67) 
66

>  <_smiles>  (67) 
OC[C@H]1O[C@@H](OC[C@H]2O[C@@H](OC3=CC4=C(O)C=C(O)C=C4[O+]=C3C3=CC(O)=C(O)C(O)=C3)[C@H](O)[C@@H](O)[C@@H]2O)[C@H](O)[C@@H](O)[C@@H]1O

>  <_name>  (67) 
Delphinidin 3-O-glucosyl-glucoside

>  <_molecular_weight>  (67) 
627.525

>  <_formula>  (67) 
C27H31O17

>  <_logP>  (67) 
-2.088200000000001

>  <_molecular_wt_calculated>  (67) 
627.5280000000015

>  <_havy_atom_count>  (67) 
44

>  <_hydrogen_acceptors>  (67) 
16

>  <_hydrogen_donors>  (67) 
12

>  <_rotatable_bonds>  (67) 
19

>  <_amide_bonds>  (67) 
0

>  <_ring_count>  (67) 
5

$$$$
Cyanidin 3-O-(6''-malonyl-3''-glucosyl-glucoside)
     RDKit          3D

 82 86  0  0  0  0  0  0  0  0999 V2000
   -5.9216   -1.2848    1.1955 C   0  0  1  0  0  0  0  0  0  0  0  0
   -7.0298   -0.6030    2.0066 C   0  0  0  0  0  0  0  0  0  0  0  0
   -6.7649   -0.7038    3.3794 O   0  0  0  0  0  0  0  0  0  0  0  0
   -4.6715   -0.7312    1.5588 O   0  0  0  0  0  0  0  0  0  0  0  0
   -3.6787   -1.0379    0.5905 C   0  0  1  0  0  0  0  0  0  0  0  0
   -2.4222   -0.6928    1.1518 O   0  0  0  0  0  0  0  0  0  0  0  0
   -1.4866   -0.2672    0.1708 C   0  0  1  0  0  0  0  0  0  0  0  0
   -1.4294    1.2783    0.1402 C   0  0  2  0  0  0  0  0  0  0  0  0
   -2.6376    1.8102   -0.3439 O   0  0  0  0  0  0  0  0  0  0  0  0
   -0.2187    1.7622   -0.7057 C   0  0  1  0  0  0  0  0  0  0  0  0
   -0.0902    3.2900   -0.6772 C   0  0  0  0  0  0  0  0  0  0  0  0
   -1.1720    3.8898   -1.3830 O   0  0  0  0  0  0  0  0  0  0  0  0
   -1.3396    5.2735   -1.4773 C   0  0  0  0  0  0  0  0  0  0  0  0
   -0.5167    6.0611   -0.9354 O   0  0  0  0  0  0  0  0  0  0  0  0
   -2.5319    5.8181   -2.1929 C   0  0  0  0  0  0  0  0  0  0  0  0
   -3.7484    5.6605   -1.3404 C   0  0  0  0  0  0  0  0  0  0  0  0
   -4.4562    4.4626   -1.3586 O   0  0  0  0  0  0  0  0  0  0  0  0
   -4.1094    6.5945   -0.5753 O   0  0  0  0  0  0  0  0  0  0  0  0
    0.9825    1.2144   -0.1915 O   0  0  0  0  0  0  0  0  0  0  0  0
    0.9895   -0.1937   -0.3435 C   0  0  1  0  0  0  0  0  0  0  0  0
    2.2593   -0.6984    0.0643 O   0  0  0  0  0  0  0  0  0  0  0  0
    3.4880   -0.4001   -0.5494 C   0  0  0  0  0  0  0  0  0  0  0  0
    3.5724    0.3857   -1.7113 C   0  0  0  0  0  0  0  0  0  0  0  0
    4.8173    0.6210   -2.3170 C   0  0  0  0  0  0  0  0  0  0  0  0
    4.9788    1.4046   -3.4900 C   0  0  0  0  0  0  0  0  0  0  0  0
    3.9158    2.0369   -4.1419 O   0  0  0  0  0  0  0  0  0  0  0  0
    6.2576    1.5687   -4.0367 C   0  0  0  0  0  0  0  0  0  0  0  0
    7.3756    0.9761   -3.4394 C   0  0  0  0  0  0  0  0  0  0  0  0
    8.6455    1.1434   -3.9875 O   0  0  0  0  0  0  0  0  0  0  0  0
    7.2211    0.2109   -2.2834 C   0  0  0  0  0  0  0  0  0  0  0  0
    5.9555    0.0304   -1.7194 C   0  0  0  0  0  0  0  0  0  0  0  0
    5.8384   -0.7003   -0.6168 O   0  0  0  0  0  3  0  0  0  0  0  0
    4.6775   -0.9246   -0.0083 C   0  0  0  0  0  0  0  0  0  0  0  0
    4.6820   -1.7462    1.2238 C   0  0  0  0  0  0  0  0  0  0  0  0
    5.5022   -2.8831    1.2929 C   0  0  0  0  0  0  0  0  0  0  0  0
    5.5310   -3.6657    2.4499 C   0  0  0  0  0  0  0  0  0  0  0  0
    4.7535   -3.3178    3.5587 C   0  0  0  0  0  0  0  0  0  0  0  0
    4.7996   -4.1204    4.6980 O   0  0  0  0  0  0  0  0  0  0  0  0
    3.9457   -2.1693    3.5107 C   0  0  0  0  0  0  0  0  0  0  0  0
    3.1772   -1.8093    4.6167 O   0  0  0  0  0  0  0  0  0  0  0  0
    3.9186   -1.3845    2.3487 C   0  0  0  0  0  0  0  0  0  0  0  0
   -0.0983   -0.8201    0.5488 C   0  0  2  0  0  0  0  0  0  0  0  0
   -0.0734   -2.2232    0.4611 O   0  0  0  0  0  0  0  0  0  0  0  0
   -3.6719   -2.5506    0.1909 C   0  0  2  0  0  0  0  0  0  0  0  0
   -4.2049   -2.7067   -1.1001 O   0  0  0  0  0  0  0  0  0  0  0  0
   -4.4941   -3.4086    1.1745 C   0  0  1  0  0  0  0  0  0  0  0  0
   -3.7966   -3.5796    2.3857 O   0  0  0  0  0  0  0  0  0  0  0  0
   -5.9096   -2.8175    1.4209 C   0  0  2  0  0  0  0  0  0  0  0  0
   -6.8392   -3.4105    0.5494 O   0  0  0  0  0  0  0  0  0  0  0  0
   -6.1426   -1.0699    0.1216 H   0  0  0  0  0  0  0  0  0  0  0  0
   -8.0104   -1.0752    1.7723 H   0  0  0  0  0  0  0  0  0  0  0  0
   -7.0794    0.4707    1.7173 H   0  0  0  0  0  0  0  0  0  0  0  0
   -7.5191   -0.2511    3.8388 H   0  0  0  0  0  0  0  0  0  0  0  0
   -3.9020   -0.4156   -0.3093 H   0  0  0  0  0  0  0  0  0  0  0  0
   -1.7259   -0.6452   -0.8535 H   0  0  0  0  0  0  0  0  0  0  0  0
   -1.2926    1.6395    1.1839 H   0  0  0  0  0  0  0  0  0  0  0  0
   -2.7307    1.5283   -1.2916 H   0  0  0  0  0  0  0  0  0  0  0  0
   -0.3533    1.4616   -1.7719 H   0  0  0  0  0  0  0  0  0  0  0  0
   -0.0762    3.6511    0.3748 H   0  0  0  0  0  0  0  0  0  0  0  0
    0.8654    3.5847   -1.1640 H   0  0  0  0  0  0  0  0  0  0  0  0
   -2.3765    6.8910   -2.4401 H   0  0  0  0  0  0  0  0  0  0  0  0
   -2.6730    5.2633   -3.1446 H   0  0  0  0  0  0  0  0  0  0  0  0
   -5.2713    4.3315   -0.7716 H   0  0  0  0  0  0  0  0  0  0  0  0
    0.8184   -0.4874   -1.4062 H   0  0  0  0  0  0  0  0  0  0  0  0
    2.6685    0.7864   -2.1346 H   0  0  0  0  0  0  0  0  0  0  0  0
    2.9563    2.0130   -3.8289 H   0  0  0  0  0  0  0  0  0  0  0  0
    6.3814    2.1647   -4.9325 H   0  0  0  0  0  0  0  0  0  0  0  0
    8.7926    1.6932   -4.8259 H   0  0  0  0  0  0  0  0  0  0  0  0
    8.0880   -0.2453   -1.8211 H   0  0  0  0  0  0  0  0  0  0  0  0
    6.1106   -3.1731    0.4448 H   0  0  0  0  0  0  0  0  0  0  0  0
    6.1597   -4.5464    2.4851 H   0  0  0  0  0  0  0  0  0  0  0  0
    4.2560   -3.9103    5.5265 H   0  0  0  0  0  0  0  0  0  0  0  0
    2.5854   -0.9868    4.6070 H   0  0  0  0  0  0  0  0  0  0  0  0
    3.3193   -0.4829    2.3366 H   0  0  0  0  0  0  0  0  0  0  0  0
    0.1191   -0.5414    1.6043 H   0  0  0  0  0  0  0  0  0  0  0  0
   -0.2220   -2.4688   -0.4896 H   0  0  0  0  0  0  0  0  0  0  0  0
   -2.6305   -2.9464    0.1951 H   0  0  0  0  0  0  0  0  0  0  0  0
   -3.5086   -2.3978   -1.7372 H   0  0  0  0  0  0  0  0  0  0  0  0
   -4.6017   -4.4233    0.7310 H   0  0  0  0  0  0  0  0  0  0  0  0
   -3.7338   -2.6979    2.8354 H   0  0  0  0  0  0  0  0  0  0  0  0
   -6.2031   -3.0424    2.4740 H   0  0  0  0  0  0  0  0  0  0  0  0
   -7.0390   -4.3135    0.9111 H   0  0  0  0  0  0  0  0  0  0  0  0
  1  2  1  0
  2  3  1  0
  1  4  1  0
  4  5  1  0
  5  6  1  0
  6  7  1  0
  7  8  1  0
  8  9  1  0
  8 10  1  0
 10 11  1  0
 11 12  1  0
 12 13  1  0
 13 14  2  0
 13 15  1  0
 15 16  1  0
 16 17  1  0
 16 18  2  0
 10 19  1  0
 19 20  1  0
 20 21  1  0
 21 22  1  0
 22 23  2  0
 23 24  1  0
 24 25  2  0
 25 26  1  0
 25 27  1  0
 27 28  2  0
 28 29  1  0
 28 30  1  0
 30 31  2  0
 31 32  1  0
 32 33  2  0
 33 34  1  0
 34 35  2  0
 35 36  1  0
 36 37  2  0
 37 38  1  0
 37 39  1  0
 39 40  1  0
 39 41  2  0
 20 42  1  0
 42 43  1  0
  5 44  1  0
 44 45  1  0
 44 46  1  0
 46 47  1  0
 46 48  1  0
 48 49  1  0
 48  1  1  0
 42  7  1  0
 33 22  1  0
 41 34  1  0
 31 24  1  0
  1 50  1  6
  2 51  1  0
  2 52  1  0
  3 53  1  0
  5 54  1  6
  7 55  1  6
  8 56  1  1
  9 57  1  0
 10 58  1  6
 11 59  1  0
 11 60  1  0
 15 61  1  0
 15 62  1  0
 17 63  1  0
 20 64  1  6
 23 65  1  0
 26 66  1  0
 27 67  1  0
 29 68  1  0
 30 69  1  0
 35 70  1  0
 36 71  1  0
 38 72  1  0
 40 73  1  0
 41 74  1  0
 42 75  1  1
 43 76  1  0
 44 77  1  6
 45 78  1  0
 46 79  1  6
 47 80  1  0
 48 81  1  1
 49 82  1  0
M  CHG  1  32   1
M  END
>  <LIG_ID>  (68) 
67

>  <_smiles>  (68) 
[H][C@]1(CO)O[C@@]([H])(O[C@@]2([H])[C@]([H])(O)[C@@]([H])(COC(=O)CC(O)=O)O[C@@]([H])(OC3=CC4=C(O)C=C(O)C=C4[O+]=C3C3=CC=C(O)C(O)=C3)[C@]2([H])O)[C@]([H])(O)[C@@]([H])(O)[C@]1([H])O

>  <_name>  (68) 
Cyanidin 3-O-(6''-malonyl-3''-glucosyl-glucoside)

>  <_molecular_weight>  (68) 
697.572

>  <_formula>  (68) 
C30H33O19

>  <_logP>  (68) 
-1.768200000000001

>  <_molecular_wt_calculated>  (68) 
697.5750000000015

>  <_havy_atom_count>  (68) 
49

>  <_hydrogen_acceptors>  (68) 
18

>  <_hydrogen_donors>  (68) 
11

>  <_rotatable_bonds>  (68) 
20

>  <_amide_bonds>  (68) 
0

>  <_ring_count>  (68) 
5

$$$$
Delphinidin 3-O-feruloyl-glucoside
     RDKit          3D

 75 79  0  0  0  0  0  0  0  0999 V2000
    0.5907   -0.1635   -0.1371 C   0  0  1  0  0  0  0  0  0  0  0  0
    1.1201    0.6173   -1.3440 C   0  0  0  0  0  0  0  0  0  0  0  0
    2.5421    0.6801   -1.3028 O   0  0  0  0  0  0  0  0  0  0  0  0
    3.3007    1.3279   -2.2833 C   0  0  0  0  0  0  0  0  0  0  0  0
    2.7342    1.8958   -3.2562 O   0  0  0  0  0  0  0  0  0  0  0  0
    4.7688    1.3525   -2.1938 C   0  0  0  0  0  0  0  0  0  0  0  0
    5.4243    0.7865   -1.1712 C   0  0  0  0  0  0  0  0  0  0  0  0
    6.9019    0.7941   -1.0324 C   0  0  0  0  0  0  0  0  0  0  0  0
    7.4588    0.5780    0.2396 C   0  0  0  0  0  0  0  0  0  0  0  0
    8.8557    0.5652    0.4240 C   0  0  0  0  0  0  0  0  0  0  0  0
    9.4428    0.3619    1.6829 O   0  0  0  0  0  0  0  0  0  0  0  0
    8.7145    0.1505    2.8882 C   0  0  0  0  0  0  0  0  0  0  0  0
    9.6958    0.7603   -0.6800 C   0  0  0  0  0  0  0  0  0  0  0  0
   11.0786    0.7498   -0.5042 O   0  0  0  0  0  0  0  0  0  0  0  0
    9.1479    0.9602   -1.9525 C   0  0  0  0  0  0  0  0  0  0  0  0
    7.7633    0.9728   -2.1314 C   0  0  0  0  0  0  0  0  0  0  0  0
   -0.8228   -0.1079   -0.1559 O   0  0  0  0  0  0  0  0  0  0  0  0
   -1.3602   -0.5227    1.0932 C   0  0  1  0  0  0  0  0  0  0  0  0
   -2.7728   -0.6652    0.9531 O   0  0  0  0  0  0  0  0  0  0  0  0
   -3.6667    0.3576    0.5928 C   0  0  0  0  0  0  0  0  0  0  0  0
   -5.0193    0.0425    0.3627 C   0  0  0  0  0  0  0  0  0  0  0  0
   -5.8885    1.0103    0.0872 O   0  0  0  0  0  3  0  0  0  0  0  0
   -5.5475    2.2896   -0.0160 C   0  0  0  0  0  0  0  0  0  0  0  0
   -6.5343    3.2337   -0.3116 C   0  0  0  0  0  0  0  0  0  0  0  0
   -6.2031    4.5866   -0.4302 C   0  0  0  0  0  0  0  0  0  0  0  0
   -7.1819    5.5336   -0.7234 O   0  0  0  0  0  0  0  0  0  0  0  0
   -4.8796    4.9959   -0.2552 C   0  0  0  0  0  0  0  0  0  0  0  0
   -3.8720    4.0692    0.0397 C   0  0  0  0  0  0  0  0  0  0  0  0
   -2.5719    4.5607    0.1907 O   0  0  0  0  0  0  0  0  0  0  0  0
   -4.2043    2.6947    0.1676 C   0  0  0  0  0  0  0  0  0  0  0  0
   -3.2646    1.6991    0.4815 C   0  0  0  0  0  0  0  0  0  0  0  0
   -5.5198   -1.3498    0.4308 C   0  0  0  0  0  0  0  0  0  0  0  0
   -4.8105   -2.4100   -0.1573 C   0  0  0  0  0  0  0  0  0  0  0  0
   -5.2955   -3.7213   -0.0976 C   0  0  0  0  0  0  0  0  0  0  0  0
   -4.5315   -4.7245   -0.6976 O   0  0  0  0  0  0  0  0  0  0  0  0
   -6.5255   -3.9818    0.5523 C   0  0  0  0  0  0  0  0  0  0  0  0
   -7.0622   -5.2676    0.6552 O   0  0  0  0  0  0  0  0  0  0  0  0
   -7.2466   -2.9200    1.1168 C   0  0  0  0  0  0  0  0  0  0  0  0
   -8.4635   -3.1741    1.7480 O   0  0  0  0  0  0  0  0  0  0  0  0
   -6.7492   -1.6126    1.0490 C   0  0  0  0  0  0  0  0  0  0  0  0
   -0.7741   -1.8808    1.5754 C   0  0  2  0  0  0  0  0  0  0  0  0
    0.0920   -1.6563    2.6598 O   0  0  0  0  0  0  0  0  0  0  0  0
   -0.0119   -2.5819    0.4307 C   0  0  1  0  0  0  0  0  0  0  0  0
   -0.9125   -2.9470   -0.5858 O   0  0  0  0  0  0  0  0  0  0  0  0
    1.0679   -1.6449   -0.1560 C   0  0  2  0  0  0  0  0  0  0  0  0
    2.2458   -1.7732    0.6008 O   0  0  0  0  0  0  0  0  0  0  0  0
    0.9803    0.3494    0.7756 H   0  0  0  0  0  0  0  0  0  0  0  0
    0.7082    1.6501   -1.3172 H   0  0  0  0  0  0  0  0  0  0  0  0
    0.7894    0.1305   -2.2879 H   0  0  0  0  0  0  0  0  0  0  0  0
    5.3060    1.8705   -2.9763 H   0  0  0  0  0  0  0  0  0  0  0  0
    4.8531    0.3296   -0.3713 H   0  0  0  0  0  0  0  0  0  0  0  0
    6.7984    0.4287    1.0838 H   0  0  0  0  0  0  0  0  0  0  0  0
    8.0713    1.0294    3.1049 H   0  0  0  0  0  0  0  0  0  0  0  0
    9.4300    0.0193    3.7255 H   0  0  0  0  0  0  0  0  0  0  0  0
    8.0943   -0.7668    2.8038 H   0  0  0  0  0  0  0  0  0  0  0  0
   11.7134    0.8867   -1.2822 H   0  0  0  0  0  0  0  0  0  0  0  0
    9.7969    1.0992   -2.8079 H   0  0  0  0  0  0  0  0  0  0  0  0
    7.3795    1.0984   -3.1341 H   0  0  0  0  0  0  0  0  0  0  0  0
   -1.1670    0.2583    1.8642 H   0  0  0  0  0  0  0  0  0  0  0  0
   -7.5599    2.9139   -0.4492 H   0  0  0  0  0  0  0  0  0  0  0  0
   -8.1512    5.2699   -0.8568 H   0  0  0  0  0  0  0  0  0  0  0  0
   -4.6299    6.0454   -0.3516 H   0  0  0  0  0  0  0  0  0  0  0  0
   -1.7616    3.9885    0.3781 H   0  0  0  0  0  0  0  0  0  0  0  0
   -2.2337    1.9492    0.6593 H   0  0  0  0  0  0  0  0  0  0  0  0
   -3.8851   -2.2211   -0.6872 H   0  0  0  0  0  0  0  0  0  0  0  0
   -4.7944   -5.6991   -0.7198 H   0  0  0  0  0  0  0  0  0  0  0  0
   -6.6169   -6.0975    0.2912 H   0  0  0  0  0  0  0  0  0  0  0  0
   -9.0101   -2.4306    2.1666 H   0  0  0  0  0  0  0  0  0  0  0  0
   -7.3164   -0.8032    1.4932 H   0  0  0  0  0  0  0  0  0  0  0  0
   -1.6064   -2.5431    1.9140 H   0  0  0  0  0  0  0  0  0  0  0  0
    0.2396   -2.5349    3.0983 H   0  0  0  0  0  0  0  0  0  0  0  0
    0.4822   -3.5031    0.8210 H   0  0  0  0  0  0  0  0  0  0  0  0
   -1.4293   -3.7248   -0.2481 H   0  0  0  0  0  0  0  0  0  0  0  0
    1.2631   -1.9794   -1.2038 H   0  0  0  0  0  0  0  0  0  0  0  0
    3.0031   -1.5347    0.0056 H   0  0  0  0  0  0  0  0  0  0  0  0
  1  2  1  0
  2  3  1  0
  3  4  1  0
  4  5  2  0
  4  6  1  0
  6  7  2  0
  7  8  1  0
  8  9  2  0
  9 10  1  0
 10 11  1  0
 11 12  1  0
 10 13  2  0
 13 14  1  0
 13 15  1  0
 15 16  2  0
  1 17  1  0
 17 18  1  0
 18 19  1  0
 19 20  1  0
 20 21  1  0
 21 22  2  0
 22 23  1  0
 23 24  2  0
 24 25  1  0
 25 26  1  0
 25 27  2  0
 27 28  1  0
 28 29  1  0
 28 30  2  0
 30 31  1  0
 21 32  1  0
 32 33  2  0
 33 34  1  0
 34 35  1  0
 34 36  2  0
 36 37  1  0
 36 38  1  0
 38 39  1  0
 38 40  2  0
 18 41  1  0
 41 42  1  0
 41 43  1  0
 43 44  1  0
 43 45  1  0
 45 46  1  0
 45  1  1  0
 16  8  1  0
 31 20  2  0
 40 32  1  0
 30 23  1  0
  1 47  1  1
  2 48  1  0
  2 49  1  0
  6 50  1  0
  7 51  1  0
  9 52  1  0
 12 53  1  0
 12 54  1  0
 12 55  1  0
 14 56  1  0
 15 57  1  0
 16 58  1  0
 18 59  1  1
 24 60  1  0
 26 61  1  0
 27 62  1  0
 29 63  1  0
 31 64  1  0
 33 65  1  0
 35 66  1  0
 37 67  1  0
 39 68  1  0
 40 69  1  0
 41 70  1  1
 42 71  1  0
 43 72  1  1
 44 73  1  0
 45 74  1  6
 46 75  1  0
M  CHG  1  22   1
M  END
>  <LIG_ID>  (69) 
68

>  <_smiles>  (69) 
[H][C@]1(COC(=O)\C=C\C2=CC(OC)=C(O)C=C2)O[C@@]([H])(OC2=C([O+]=C3C=C(O)C=C(O)C3=C2)C2=CC(O)=C(O)C(O)=C2)[C@]([H])(O)[C@@]([H])(O)[C@]1([H])O

>  <_name>  (69) 
Delphinidin 3-O-feruloyl-glucoside

>  <_molecular_weight>  (69) 
641.553

>  <_formula>  (69) 
C31H29O15

>  <_logP>  (69) 
2.0661000000000027

>  <_molecular_wt_calculated>  (69) 
641.5580000000015

>  <_havy_atom_count>  (69) 
46

>  <_hydrogen_acceptors>  (69) 
14

>  <_hydrogen_donors>  (69) 
9

>  <_rotatable_bonds>  (69) 
18

>  <_amide_bonds>  (69) 
0

>  <_ring_count>  (69) 
5

$$$$
Petunidin 3,5-O-diglucoside
     RDKit          3D

 78 82  0  0  0  0  0  0  0  0999 V2000
   -5.4159    4.6554    3.6724 C   0  0  0  0  0  0  0  0  0  0  0  0
   -5.8256    4.4892    2.3187 O   0  0  0  0  0  0  0  0  0  0  0  0
   -5.0589    3.8596    1.3247 C   0  0  0  0  0  0  0  0  0  0  0  0
   -5.5841    3.7635    0.0225 C   0  0  0  0  0  0  0  0  0  0  0  0
   -6.8461    4.2805   -0.2750 O   0  0  0  0  0  0  0  0  0  0  0  0
   -4.8350    3.1468   -0.9939 C   0  0  0  0  0  0  0  0  0  0  0  0
   -5.3278    3.0520   -2.2953 O   0  0  0  0  0  0  0  0  0  0  0  0
   -3.5725    2.6205   -0.7105 C   0  0  0  0  0  0  0  0  0  0  0  0
   -3.0447    2.6885    0.5882 C   0  0  0  0  0  0  0  0  0  0  0  0
   -3.7842    3.3252    1.5957 C   0  0  0  0  0  0  0  0  0  0  0  0
   -1.6999    2.1532    0.8987 C   0  0  0  0  0  0  0  0  0  0  0  0
   -0.8918    2.8891    1.6601 O   0  0  0  0  0  3  0  0  0  0  0  0
    0.3415    2.5167    1.9844 C   0  0  0  0  0  0  0  0  0  0  0  0
    0.8598    1.2904    1.5208 C   0  0  0  0  0  0  0  0  0  0  0  0
    0.0259    0.4706    0.7538 C   0  0  0  0  0  0  0  0  0  0  0  0
   -1.2708    0.8960    0.4237 C   0  0  0  0  0  0  0  0  0  0  0  0
   -2.1522    0.0985   -0.3303 O   0  0  0  0  0  0  0  0  0  0  0  0
   -1.8033   -1.0886   -1.0468 C   0  0  0  0  0  0  0  0  0  0  0  0
   -3.0026   -1.7233   -1.4482 O   0  0  0  0  0  0  0  0  0  0  0  0
   -2.7799   -2.9634   -2.1091 C   0  0  0  0  0  0  0  0  0  0  0  0
   -2.4925   -4.1251   -1.1312 C   0  0  0  0  0  0  0  0  0  0  0  0
   -1.1648   -4.1318   -0.6901 O   0  0  0  0  0  0  0  0  0  0  0  0
   -1.8094   -2.8662   -3.3252 C   0  0  0  0  0  0  0  0  0  0  0  0
   -2.4961   -2.3200   -4.4244 O   0  0  0  0  0  0  0  0  0  0  0  0
   -0.5693   -1.9886   -3.0445 C   0  0  0  0  0  0  0  0  0  0  0  0
    0.3956   -2.6996   -2.3127 O   0  0  0  0  0  0  0  0  0  0  0  0
   -0.9557   -0.7177   -2.2766 C   0  0  0  0  0  0  0  0  0  0  0  0
   -1.6900    0.1497   -3.1035 O   0  0  0  0  0  0  0  0  0  0  0  0
    2.1762    0.9141    1.8595 C   0  0  0  0  0  0  0  0  0  0  0  0
    2.7315   -0.2832    1.3982 O   0  0  0  0  0  0  0  0  0  0  0  0
    3.1613   -0.4585    0.0433 C   0  0  0  0  0  0  0  0  0  0  0  0
    3.1070   -1.8275   -0.3261 O   0  0  0  0  0  0  0  0  0  0  0  0
    3.9608   -2.6266    0.4808 C   0  0  0  0  0  0  0  0  0  0  0  0
    3.7458   -4.0989    0.1003 C   0  0  0  0  0  0  0  0  0  0  0  0
    2.4159   -4.4754    0.3397 O   0  0  0  0  0  0  0  0  0  0  0  0
    5.4400   -2.2157    0.2834 C   0  0  0  0  0  0  0  0  0  0  0  0
    6.2703   -2.9548    1.1443 O   0  0  0  0  0  0  0  0  0  0  0  0
    5.6006   -0.7178    0.6056 C   0  0  0  0  0  0  0  0  0  0  0  0
    6.9126   -0.2725    0.3605 O   0  0  0  0  0  0  0  0  0  0  0  0
    4.5706    0.1222   -0.1734 C   0  0  0  0  0  0  0  0  0  0  0  0
    4.8594    0.1091   -1.5495 O   0  0  0  0  0  0  0  0  0  0  0  0
    2.9423    1.7442    2.6859 C   0  0  0  0  0  0  0  0  0  0  0  0
    2.4224    2.9606    3.1489 C   0  0  0  0  0  0  0  0  0  0  0  0
    3.1869    3.7944    3.9619 O   0  0  0  0  0  0  0  0  0  0  0  0
    1.1262    3.3456    2.7924 C   0  0  0  0  0  0  0  0  0  0  0  0
   -5.2494    3.6646    4.1455 H   0  0  0  0  0  0  0  0  0  0  0  0
   -4.4877    5.2634    3.7187 H   0  0  0  0  0  0  0  0  0  0  0  0
   -6.2150    5.1850    4.2302 H   0  0  0  0  0  0  0  0  0  0  0  0
   -7.4240    4.7346    0.4219 H   0  0  0  0  0  0  0  0  0  0  0  0
   -6.2355    3.4178   -2.5566 H   0  0  0  0  0  0  0  0  0  0  0  0
   -2.9970    2.1798   -1.5147 H   0  0  0  0  0  0  0  0  0  0  0  0
   -3.3659    3.3888    2.5916 H   0  0  0  0  0  0  0  0  0  0  0  0
    0.3811   -0.4972    0.4356 H   0  0  0  0  0  0  0  0  0  0  0  0
   -1.2424   -1.7527   -0.3600 H   0  0  0  0  0  0  0  0  0  0  0  0
   -3.7687   -3.2360   -2.5404 H   0  0  0  0  0  0  0  0  0  0  0  0
   -3.1778   -4.0420   -0.2580 H   0  0  0  0  0  0  0  0  0  0  0  0
   -2.7068   -5.0891   -1.6459 H   0  0  0  0  0  0  0  0  0  0  0  0
   -1.0840   -4.8981   -0.0647 H   0  0  0  0  0  0  0  0  0  0  0  0
   -1.4578   -3.8899   -3.5974 H   0  0  0  0  0  0  0  0  0  0  0  0
   -3.0390   -3.0505   -4.8218 H   0  0  0  0  0  0  0  0  0  0  0  0
   -0.1155   -1.6800   -4.0165 H   0  0  0  0  0  0  0  0  0  0  0  0
    0.8256   -3.3362   -2.9418 H   0  0  0  0  0  0  0  0  0  0  0  0
   -0.0236   -0.2076   -1.9415 H   0  0  0  0  0  0  0  0  0  0  0  0
   -1.0383    0.5931   -3.7071 H   0  0  0  0  0  0  0  0  0  0  0  0
    2.4670    0.0895   -0.6307 H   0  0  0  0  0  0  0  0  0  0  0  0
    3.6901   -2.5283    1.5577 H   0  0  0  0  0  0  0  0  0  0  0  0
    4.0138   -4.2674   -0.9686 H   0  0  0  0  0  0  0  0  0  0  0  0
    4.4000   -4.7477    0.7199 H   0  0  0  0  0  0  0  0  0  0  0  0
    1.8880   -4.1831   -0.4483 H   0  0  0  0  0  0  0  0  0  0  0  0
    5.7241   -2.3861   -0.7838 H   0  0  0  0  0  0  0  0  0  0  0  0
    6.6272   -3.7204    0.6229 H   0  0  0  0  0  0  0  0  0  0  0  0
    5.4034   -0.5749    1.6918 H   0  0  0  0  0  0  0  0  0  0  0  0
    7.1538   -0.5207   -0.5697 H   0  0  0  0  0  0  0  0  0  0  0  0
    4.5856    1.1699    0.2105 H   0  0  0  0  0  0  0  0  0  0  0  0
    5.4846    0.8604   -1.7233 H   0  0  0  0  0  0  0  0  0  0  0  0
    3.9483    1.4480    2.9558 H   0  0  0  0  0  0  0  0  0  0  0  0
    4.1297    3.5458    4.2378 H   0  0  0  0  0  0  0  0  0  0  0  0
    0.7267    4.2870    3.1491 H   0  0  0  0  0  0  0  0  0  0  0  0
  1  2  1  0
  2  3  1  0
  3  4  2  0
  4  5  1  0
  4  6  1  0
  6  7  1  0
  6  8  2  0
  8  9  1  0
  9 10  2  0
  9 11  1  0
 11 12  2  0
 12 13  1  0
 13 14  2  0
 14 15  1  0
 15 16  2  0
 16 17  1  0
 17 18  1  0
 18 19  1  0
 19 20  1  0
 20 21  1  0
 21 22  1  0
 20 23  1  0
 23 24  1  0
 23 25  1  0
 25 26  1  0
 25 27  1  0
 27 28  1  0
 14 29  1  0
 29 30  1  0
 30 31  1  0
 31 32  1  0
 32 33  1  0
 33 34  1  0
 34 35  1  0
 33 36  1  0
 36 37  1  0
 36 38  1  0
 38 39  1  0
 38 40  1  0
 40 41  1  0
 29 42  2  0
 42 43  1  0
 43 44  1  0
 43 45  2  0
 10  3  1  0
 16 11  1  0
 27 18  1  0
 40 31  1  0
 45 13  1  0
  1 46  1  0
  1 47  1  0
  1 48  1  0
  5 49  1  0
  7 50  1  0
  8 51  1  0
 10 52  1  0
 15 53  1  0
 18 54  1  0
 20 55  1  0
 21 56  1  0
 21 57  1  0
 22 58  1  0
 23 59  1  0
 24 60  1  0
 25 61  1  0
 26 62  1  0
 27 63  1  0
 28 64  1  0
 31 65  1  0
 33 66  1  0
 34 67  1  0
 34 68  1  0
 35 69  1  0
 36 70  1  0
 37 71  1  0
 38 72  1  0
 39 73  1  0
 40 74  1  0
 41 75  1  0
 42 76  1  0
 44 77  1  0
 45 78  1  0
M  CHG  1  12   1
M  END
>  <LIG_ID>  (70) 
69

>  <_smiles>  (70) 
COC1=C(O)C(O)=CC(=C1)C1=[O+]C2=C(C=C1OC1OC(CO)C(O)C(O)C1O)C(OC1OC(CO)C(O)C(O)C1O)=CC(O)=C2

>  <_name>  (70) 
Petunidin 3,5-O-diglucoside

>  <_molecular_weight>  (70) 
641.551

>  <_formula>  (70) 
C28H33O17

>  <_logP>  (70) 
-2.1363000000000003

>  <_molecular_wt_calculated>  (70) 
641.5550000000015

>  <_havy_atom_count>  (70) 
45

>  <_hydrogen_acceptors>  (70) 
16

>  <_hydrogen_donors>  (70) 
11

>  <_rotatable_bonds>  (70) 
20

>  <_amide_bonds>  (70) 
0

>  <_ring_count>  (70) 
5

$$$$
Petunidin 3-O-rhamnoside
     RDKit          3D

 55 58  0  0  0  0  0  0  0  0999 V2000
    1.2788   -3.9159   -2.0701 C   0  0  0  0  0  0  0  0  0  0  0  0
    2.5289   -3.7257   -1.4162 O   0  0  0  0  0  0  0  0  0  0  0  0
    2.9274   -2.5351   -0.7878 C   0  0  0  0  0  0  0  0  0  0  0  0
    4.2052   -2.4833   -0.2126 C   0  0  0  0  0  0  0  0  0  0  0  0
    5.0199   -3.6149   -0.2665 O   0  0  0  0  0  0  0  0  0  0  0  0
    4.6557   -1.3030    0.4015 C   0  0  0  0  0  0  0  0  0  0  0  0
    5.9299   -1.2520    0.9650 O   0  0  0  0  0  0  0  0  0  0  0  0
    3.8242   -0.1774    0.4439 C   0  0  0  0  0  0  0  0  0  0  0  0
    2.5346   -0.2225   -0.1033 C   0  0  0  0  0  0  0  0  0  0  0  0
    2.0933   -1.4012   -0.7284 C   0  0  0  0  0  0  0  0  0  0  0  0
    1.6900    0.9915   -0.0701 C   0  0  0  0  0  0  0  0  0  0  0  0
    2.2553    2.1575   -0.3797 O   0  0  0  0  0  3  0  0  0  0  0  0
    1.5892    3.3066   -0.3912 C   0  0  0  0  0  0  0  0  0  0  0  0
    0.2195    3.3355   -0.0631 C   0  0  0  0  0  0  0  0  0  0  0  0
   -0.4780    4.5522   -0.0808 C   0  0  0  0  0  0  0  0  0  0  0  0
    0.1879    5.7331   -0.4241 C   0  0  0  0  0  0  0  0  0  0  0  0
    1.5491    5.7078   -0.7495 C   0  0  0  0  0  0  0  0  0  0  0  0
    2.1962    6.8939   -1.0882 O   0  0  0  0  0  0  0  0  0  0  0  0
    2.2490    4.4924   -0.7322 C   0  0  0  0  0  0  0  0  0  0  0  0
   -0.4092    2.1379    0.2825 C   0  0  0  0  0  0  0  0  0  0  0  0
    0.3274    0.9408    0.2935 C   0  0  0  0  0  0  0  0  0  0  0  0
   -0.2424   -0.2835    0.6828 O   0  0  0  0  0  0  0  0  0  0  0  0
   -1.6039   -0.4666    1.0687 C   0  0  0  0  0  0  0  0  0  0  0  0
   -2.4450   -0.2047   -0.0438 O   0  0  0  0  0  0  0  0  0  0  0  0
   -3.8054   -0.2193    0.3541 C   0  0  0  0  0  0  0  0  0  0  0  0
   -4.6664    0.3112   -0.7933 C   0  0  0  0  0  0  0  0  0  0  0  0
   -4.2391   -1.6479    0.7768 C   0  0  0  0  0  0  0  0  0  0  0  0
   -4.3273   -2.5314   -0.3171 O   0  0  0  0  0  0  0  0  0  0  0  0
   -3.2891   -2.1839    1.8754 C   0  0  0  0  0  0  0  0  0  0  0  0
   -3.5338   -3.5378    2.1695 O   0  0  0  0  0  0  0  0  0  0  0  0
   -1.7957   -1.9179    1.5677 C   0  0  0  0  0  0  0  0  0  0  0  0
   -1.2669   -2.8707    0.6737 O   0  0  0  0  0  0  0  0  0  0  0  0
    1.1638   -3.1840   -2.8973 H   0  0  0  0  0  0  0  0  0  0  0  0
    0.4487   -3.8069   -1.3430 H   0  0  0  0  0  0  0  0  0  0  0  0
    1.2443   -4.9399   -2.4948 H   0  0  0  0  0  0  0  0  0  0  0  0
    5.9511   -3.6290    0.1318 H   0  0  0  0  0  0  0  0  0  0  0  0
    6.2796   -0.4130    1.4130 H   0  0  0  0  0  0  0  0  0  0  0  0
    4.1805    0.7306    0.9157 H   0  0  0  0  0  0  0  0  0  0  0  0
    1.1153   -1.4215   -1.1898 H   0  0  0  0  0  0  0  0  0  0  0  0
   -1.5313    4.5896    0.1701 H   0  0  0  0  0  0  0  0  0  0  0  0
   -0.3542    6.6702   -0.4366 H   0  0  0  0  0  0  0  0  0  0  0  0
    3.1805    6.9101   -1.3288 H   0  0  0  0  0  0  0  0  0  0  0  0
    3.3020    4.4690   -0.9841 H   0  0  0  0  0  0  0  0  0  0  0  0
   -1.4572    2.1480    0.5514 H   0  0  0  0  0  0  0  0  0  0  0  0
   -1.8200    0.2315    1.9117 H   0  0  0  0  0  0  0  0  0  0  0  0
   -3.9684    0.4753    1.2121 H   0  0  0  0  0  0  0  0  0  0  0  0
   -4.5158   -0.2922   -1.7133 H   0  0  0  0  0  0  0  0  0  0  0  0
   -4.3847    1.3626   -1.0150 H   0  0  0  0  0  0  0  0  0  0  0  0
   -5.7409    0.2866   -0.5124 H   0  0  0  0  0  0  0  0  0  0  0  0
   -5.2565   -1.5777    1.2210 H   0  0  0  0  0  0  0  0  0  0  0  0
   -3.5167   -2.4237   -0.8746 H   0  0  0  0  0  0  0  0  0  0  0  0
   -3.5246   -1.6099    2.7997 H   0  0  0  0  0  0  0  0  0  0  0  0
   -3.3296   -4.0721    1.3593 H   0  0  0  0  0  0  0  0  0  0  0  0
   -1.2325   -2.0219    2.5210 H   0  0  0  0  0  0  0  0  0  0  0  0
   -1.3929   -2.5477   -0.2542 H   0  0  0  0  0  0  0  0  0  0  0  0
  1  2  1  0
  2  3  1  0
  3  4  2  0
  4  5  1  0
  4  6  1  0
  6  7  1  0
  6  8  2  0
  8  9  1  0
  9 10  2  0
  9 11  1  0
 11 12  2  0
 12 13  1  0
 13 14  2  0
 14 15  1  0
 15 16  2  0
 16 17  1  0
 17 18  1  0
 17 19  2  0
 14 20  1  0
 20 21  2  0
 21 22  1  0
 22 23  1  0
 23 24  1  0
 24 25  1  0
 25 26  1  0
 25 27  1  0
 27 28  1  0
 27 29  1  0
 29 30  1  0
 29 31  1  0
 31 32  1  0
 10  3  1  0
 21 11  1  0
 31 23  1  0
 19 13  1  0
  1 33  1  0
  1 34  1  0
  1 35  1  0
  5 36  1  0
  7 37  1  0
  8 38  1  0
 10 39  1  0
 15 40  1  0
 16 41  1  0
 18 42  1  0
 19 43  1  0
 20 44  1  0
 23 45  1  0
 25 46  1  0
 26 47  1  0
 26 48  1  0
 26 49  1  0
 27 50  1  0
 28 51  1  0
 29 52  1  0
 30 53  1  0
 31 54  1  0
 32 55  1  0
M  CHG  1  12   1
M  END
>  <LIG_ID>  (71) 
70

>  <_smiles>  (71) 
COC1=C(O)C(O)=CC(=C1)C1=[O+]C2=C(C=CC(O)=C2)C=C1OC1OC(C)C(O)C(O)C1O

>  <_name>  (71) 
Petunidin 3-O-rhamnoside

>  <_molecular_weight>  (71) 
447.412

>  <_formula>  (71) 
C22H23O10

>  <_logP>  (71) 
1.7126000000000008

>  <_molecular_wt_calculated>  (71) 
447.4159999999998

>  <_havy_atom_count>  (71) 
32

>  <_hydrogen_acceptors>  (71) 
9

>  <_hydrogen_donors>  (71) 
6

>  <_rotatable_bonds>  (71) 
12

>  <_amide_bonds>  (71) 
0

>  <_ring_count>  (71) 
4

$$$$
Butein
     RDKit          3D

 32 33  0  0  0  0  0  0  0  0999 V2000
   -6.5398    0.6603   -0.2334 O   0  0  0  0  0  0  0  0  0  0  0  0
   -5.2458    0.1767   -0.0535 C   0  0  0  0  0  0  0  0  0  0  0  0
   -4.2411    1.0012    0.4673 C   0  0  0  0  0  0  0  0  0  0  0  0
   -2.9398    0.5087    0.6485 C   0  0  0  0  0  0  0  0  0  0  0  0
   -1.9655    1.3311    1.2145 O   0  0  0  0  0  0  0  0  0  0  0  0
   -2.6339   -0.8211    0.2825 C   0  0  0  0  0  0  0  0  0  0  0  0
   -3.6569   -1.6433   -0.2218 C   0  0  0  0  0  0  0  0  0  0  0  0
   -4.9508   -1.1453   -0.3924 C   0  0  0  0  0  0  0  0  0  0  0  0
   -1.2715   -1.3818    0.4403 C   0  0  0  0  0  0  0  0  0  0  0  0
   -1.1422   -2.5774    0.8230 O   0  0  0  0  0  0  0  0  0  0  0  0
   -0.0730   -0.5803    0.1094 C   0  0  0  0  0  0  0  0  0  0  0  0
    1.1693   -1.0147    0.3658 C   0  0  0  0  0  0  0  0  0  0  0  0
    2.3940   -0.2458    0.0336 C   0  0  0  0  0  0  0  0  0  0  0  0
    3.6111   -0.9369   -0.0856 C   0  0  0  0  0  0  0  0  0  0  0  0
    4.7977   -0.2531   -0.3880 C   0  0  0  0  0  0  0  0  0  0  0  0
    5.9969   -0.9528   -0.5139 O   0  0  0  0  0  0  0  0  0  0  0  0
    4.7748    1.1400   -0.5632 C   0  0  0  0  0  0  0  0  0  0  0  0
    5.9371    1.8488   -0.8654 O   0  0  0  0  0  0  0  0  0  0  0  0
    3.5699    1.8354   -0.4295 C   0  0  0  0  0  0  0  0  0  0  0  0
    2.3878    1.1535   -0.1288 C   0  0  0  0  0  0  0  0  0  0  0  0
   -6.7866    1.6141    0.0038 H   0  0  0  0  0  0  0  0  0  0  0  0
   -4.4740    2.0222    0.7428 H   0  0  0  0  0  0  0  0  0  0  0  0
   -2.1679    2.2852    1.4895 H   0  0  0  0  0  0  0  0  0  0  0  0
   -3.4499   -2.6696   -0.5002 H   0  0  0  0  0  0  0  0  0  0  0  0
   -5.7253   -1.7879   -0.7914 H   0  0  0  0  0  0  0  0  0  0  0  0
   -0.2241    0.3653   -0.3918 H   0  0  0  0  0  0  0  0  0  0  0  0
    1.3025   -1.9957    0.8072 H   0  0  0  0  0  0  0  0  0  0  0  0
    3.6387   -2.0119    0.0477 H   0  0  0  0  0  0  0  0  0  0  0  0
    6.0406   -1.9579   -0.3922 H   0  0  0  0  0  0  0  0  0  0  0  0
    6.8343    1.3908   -0.9713 H   0  0  0  0  0  0  0  0  0  0  0  0
    3.5509    2.9110   -0.5519 H   0  0  0  0  0  0  0  0  0  0  0  0
    1.4829    1.7313   -0.0016 H   0  0  0  0  0  0  0  0  0  0  0  0
  1  2  1  0
  2  3  2  0
  3  4  1  0
  4  5  1  0
  4  6  2  0
  6  7  1  0
  7  8  2  0
  6  9  1  0
  9 10  2  0
  9 11  1  0
 11 12  2  0
 12 13  1  0
 13 14  2  0
 14 15  1  0
 15 16  1  0
 15 17  2  0
 17 18  1  0
 17 19  1  0
 19 20  2  0
  8  2  1  0
 20 13  1  0
  1 21  1  0
  3 22  1  0
  5 23  1  0
  7 24  1  0
  8 25  1  0
 11 26  1  0
 12 27  1  0
 14 28  1  0
 16 29  1  0
 18 30  1  0
 19 31  1  0
 20 32  1  0
M  END
>  <LIG_ID>  (72) 
71

>  <_smiles>  (72) 
OC1=CC(O)=C(C=C1)C(=O)\C=C\C1=CC(O)=C(O)C=C1

>  <_name>  (72) 
Butein

>  <_molecular_weight>  (72) 
272.253

>  <_formula>  (72) 
C15H12O5

>  <_logP>  (72) 
2.405100000000001

>  <_molecular_wt_calculated>  (72) 
272.25599999999974

>  <_havy_atom_count>  (72) 
20

>  <_hydrogen_acceptors>  (72) 
5

>  <_hydrogen_donors>  (72) 
4

>  <_rotatable_bonds>  (72) 
7

>  <_amide_bonds>  (72) 
0

>  <_ring_count>  (72) 
2

$$$$
Xanthohumol
     RDKit          3D

 48 49  0  0  0  0  0  0  0  0999 V2000
    1.8113   -2.5598   -2.8121 C   0  0  0  0  0  0  0  0  0  0  0  0
    1.4371   -1.2314   -2.4628 O   0  0  0  0  0  0  0  0  0  0  0  0
    0.1656   -0.8530   -1.9979 C   0  0  0  0  0  0  0  0  0  0  0  0
   -0.0572    0.4898   -1.6375 C   0  0  0  0  0  0  0  0  0  0  0  0
    1.0462    1.4771   -1.7227 C   0  0  0  0  0  0  0  0  0  0  0  0
    0.8705    2.5267   -2.3974 O   0  0  0  0  0  0  0  0  0  0  0  0
    2.3503    1.2824   -1.0531 C   0  0  0  0  0  0  0  0  0  0  0  0
    2.5367    0.3918   -0.0672 C   0  0  0  0  0  0  0  0  0  0  0  0
    3.8391    0.1679    0.6057 C   0  0  0  0  0  0  0  0  0  0  0  0
    4.8554    1.1445    0.6377 C   0  0  0  0  0  0  0  0  0  0  0  0
    6.0630    0.8867    1.2941 C   0  0  0  0  0  0  0  0  0  0  0  0
    6.2702   -0.3418    1.9336 C   0  0  0  0  0  0  0  0  0  0  0  0
    7.4702   -0.6087    2.5889 O   0  0  0  0  0  0  0  0  0  0  0  0
    5.2620   -1.3090    1.9181 C   0  0  0  0  0  0  0  0  0  0  0  0
    4.0529   -1.0550    1.2640 C   0  0  0  0  0  0  0  0  0  0  0  0
   -1.3334    0.9060   -1.2082 C   0  0  0  0  0  0  0  0  0  0  0  0
   -1.5051    2.2431   -0.8309 O   0  0  0  0  0  0  0  0  0  0  0  0
   -2.4000   -0.0253   -1.1435 C   0  0  0  0  0  0  0  0  0  0  0  0
   -3.7822    0.3986   -0.6929 C   0  0  0  0  0  0  0  0  0  0  0  0
   -3.8426    0.5272    0.8100 C   0  0  0  0  0  0  0  0  0  0  0  0
   -4.9474    0.9292    1.4728 C   0  0  0  0  0  0  0  0  0  0  0  0
   -4.8958    1.0222    2.9757 C   0  0  0  0  0  0  0  0  0  0  0  0
   -6.2211    1.2848    0.7434 C   0  0  0  0  0  0  0  0  0  0  0  0
   -2.1536   -1.3756   -1.4629 C   0  0  0  0  0  0  0  0  0  0  0  0
   -3.1734   -2.3224   -1.3556 O   0  0  0  0  0  0  0  0  0  0  0  0
   -0.8848   -1.7779   -1.8909 C   0  0  0  0  0  0  0  0  0  0  0  0
    1.1883   -2.9230   -3.6563 H   0  0  0  0  0  0  0  0  0  0  0  0
    2.8746   -2.5646   -3.1278 H   0  0  0  0  0  0  0  0  0  0  0  0
    1.6987   -3.2308   -1.9344 H   0  0  0  0  0  0  0  0  0  0  0  0
    3.1663    1.9088   -1.3854 H   0  0  0  0  0  0  0  0  0  0  0  0
    1.7086   -0.2339    0.2428 H   0  0  0  0  0  0  0  0  0  0  0  0
    4.7189    2.1151    0.1822 H   0  0  0  0  0  0  0  0  0  0  0  0
    6.8347    1.6459    1.3112 H   0  0  0  0  0  0  0  0  0  0  0  0
    8.2199    0.0724    2.6189 H   0  0  0  0  0  0  0  0  0  0  0  0
    5.4149   -2.2590    2.4143 H   0  0  0  0  0  0  0  0  0  0  0  0
    3.2855   -1.8199    1.2635 H   0  0  0  0  0  0  0  0  0  0  0  0
   -2.3634    2.6150   -0.4473 H   0  0  0  0  0  0  0  0  0  0  0  0
   -4.0543    1.3605   -1.1756 H   0  0  0  0  0  0  0  0  0  0  0  0
   -4.5482   -0.3334   -1.0250 H   0  0  0  0  0  0  0  0  0  0  0  0
   -2.9507    0.2831    1.3843 H   0  0  0  0  0  0  0  0  0  0  0  0
   -5.8629    1.3640    3.3997 H   0  0  0  0  0  0  0  0  0  0  0  0
   -4.1083    1.7438    3.2801 H   0  0  0  0  0  0  0  0  0  0  0  0
   -4.6605    0.0254    3.4054 H   0  0  0  0  0  0  0  0  0  0  0  0
   -6.0374    2.1332    0.0513 H   0  0  0  0  0  0  0  0  0  0  0  0
   -6.5850    0.4091    0.1662 H   0  0  0  0  0  0  0  0  0  0  0  0
   -7.0234    1.5866    1.4483 H   0  0  0  0  0  0  0  0  0  0  0  0
   -3.0209   -3.2991   -1.5789 H   0  0  0  0  0  0  0  0  0  0  0  0
   -0.7292   -2.8173   -2.1452 H   0  0  0  0  0  0  0  0  0  0  0  0
  1  2  1  0
  2  3  1  0
  3  4  2  0
  4  5  1  0
  5  6  2  0
  5  7  1  0
  7  8  2  0
  8  9  1  0
  9 10  2  0
 10 11  1  0
 11 12  2  0
 12 13  1  0
 12 14  1  0
 14 15  2  0
  4 16  1  0
 16 17  1  0
 16 18  2  0
 18 19  1  0
 19 20  1  0
 20 21  2  3
 21 22  1  0
 21 23  1  0
 18 24  1  0
 24 25  1  0
 24 26  2  0
 26  3  1  0
 15  9  1  0
  1 27  1  0
  1 28  1  0
  1 29  1  0
  7 30  1  0
  8 31  1  0
 10 32  1  0
 11 33  1  0
 13 34  1  0
 14 35  1  0
 15 36  1  0
 17 37  1  0
 19 38  1  0
 19 39  1  0
 20 40  1  0
 22 41  1  0
 22 42  1  0
 22 43  1  0
 23 44  1  0
 23 45  1  0
 23 46  1  0
 25 47  1  0
 26 48  1  0
M  END
>  <LIG_ID>  (73) 
72

>  <_smiles>  (73) 
COC1=C(C(=O)\C=C\C2=CC=C(O)C=C2)C(O)=C(CC=C(C)C)C(O)=C1

>  <_name>  (73) 
Xanthohumol

>  <_molecular_weight>  (73) 
354.396

>  <_formula>  (73) 
C21H22O5

>  <_logP>  (73) 
4.216800000000003

>  <_molecular_wt_calculated>  (73) 
354.4019999999997

>  <_havy_atom_count>  (73) 
26

>  <_hydrogen_acceptors>  (73) 
5

>  <_hydrogen_donors>  (73) 
3

>  <_rotatable_bonds>  (73) 
12

>  <_amide_bonds>  (73) 
0

>  <_ring_count>  (73) 
2

$$$$
Phloretin
     RDKit          3D

 34 35  0  0  0  0  0  0  0  0999 V2000
   -5.9830    2.1922    0.2163 O   0  0  0  0  0  0  0  0  0  0  0  0
   -4.8513    1.3815    0.2657 C   0  0  0  0  0  0  0  0  0  0  0  0
   -4.7840    0.2014   -0.4875 C   0  0  0  0  0  0  0  0  0  0  0  0
   -3.6427   -0.6045   -0.4299 C   0  0  0  0  0  0  0  0  0  0  0  0
   -2.5617   -0.2428    0.3904 C   0  0  0  0  0  0  0  0  0  0  0  0
   -1.3180   -1.0892    0.4263 C   0  0  0  0  0  0  0  0  0  0  0  0
   -0.3295   -0.6382   -0.6549 C   0  0  0  0  0  0  0  0  0  0  0  0
    0.9583   -1.4110   -0.5680 C   0  0  0  0  0  0  0  0  0  0  0  0
    0.9377   -2.6487   -0.8093 O   0  0  0  0  0  0  0  0  0  0  0  0
    2.2531   -0.7503   -0.2628 C   0  0  0  0  0  0  0  0  0  0  0  0
    3.4022   -1.0856   -1.0118 C   0  0  0  0  0  0  0  0  0  0  0  0
    3.3207   -2.0195   -2.0456 O   0  0  0  0  0  0  0  0  0  0  0  0
    4.6294   -0.4694   -0.7317 C   0  0  0  0  0  0  0  0  0  0  0  0
    4.7276    0.4823    0.2877 C   0  0  0  0  0  0  0  0  0  0  0  0
    5.9439    1.1018    0.5665 O   0  0  0  0  0  0  0  0  0  0  0  0
    3.5981    0.8146    1.0364 C   0  0  0  0  0  0  0  0  0  0  0  0
    2.3647    0.2010    0.7767 C   0  0  0  0  0  0  0  0  0  0  0  0
    1.2618    0.5222    1.5671 O   0  0  0  0  0  0  0  0  0  0  0  0
   -2.6287    0.9476    1.1327 C   0  0  0  0  0  0  0  0  0  0  0  0
   -3.7710    1.7518    1.0733 C   0  0  0  0  0  0  0  0  0  0  0  0
   -6.7815    1.9520   -0.3595 H   0  0  0  0  0  0  0  0  0  0  0  0
   -5.6130   -0.0899   -1.1199 H   0  0  0  0  0  0  0  0  0  0  0  0
   -3.6006   -1.5085   -1.0248 H   0  0  0  0  0  0  0  0  0  0  0  0
   -0.8469   -1.0188    1.4306 H   0  0  0  0  0  0  0  0  0  0  0  0
   -1.5852   -2.1572    0.2667 H   0  0  0  0  0  0  0  0  0  0  0  0
   -0.7782   -0.8125   -1.6571 H   0  0  0  0  0  0  0  0  0  0  0  0
   -0.1356    0.4529   -0.5695 H   0  0  0  0  0  0  0  0  0  0  0  0
    4.1305   -2.2722   -2.5999 H   0  0  0  0  0  0  0  0  0  0  0  0
    5.5067   -0.7271   -1.3118 H   0  0  0  0  0  0  0  0  0  0  0  0
    6.7829    0.8824    0.0421 H   0  0  0  0  0  0  0  0  0  0  0  0
    3.6821    1.5456    1.8310 H   0  0  0  0  0  0  0  0  0  0  0  0
    1.3228    1.1979    2.3197 H   0  0  0  0  0  0  0  0  0  0  0  0
   -1.7963    1.2529    1.7549 H   0  0  0  0  0  0  0  0  0  0  0  0
   -3.8153    2.6654    1.6525 H   0  0  0  0  0  0  0  0  0  0  0  0
  1  2  1  0
  2  3  2  0
  3  4  1  0
  4  5  2  0
  5  6  1  0
  6  7  1  0
  7  8  1  0
  8  9  2  0
  8 10  1  0
 10 11  2  0
 11 12  1  0
 11 13  1  0
 13 14  2  0
 14 15  1  0
 14 16  1  0
 16 17  2  0
 17 18  1  0
  5 19  1  0
 19 20  2  0
 20  2  1  0
 17 10  1  0
  1 21  1  0
  3 22  1  0
  4 23  1  0
  6 24  1  0
  6 25  1  0
  7 26  1  0
  7 27  1  0
 12 28  1  0
 13 29  1  0
 15 30  1  0
 16 31  1  0
 18 32  1  0
 19 33  1  0
 20 34  1  0
M  END
>  <LIG_ID>  (74) 
73

>  <_smiles>  (74) 
OC1=CC=C(CCC(=O)C2=C(O)C=C(O)C=C2O)C=C1

>  <_name>  (74) 
Phloretin

>  <_molecular_weight>  (74) 
274.269

>  <_formula>  (74) 
C15H14O5

>  <_logP>  (74) 
2.3245000000000013

>  <_molecular_wt_calculated>  (74) 
274.2719999999997

>  <_havy_atom_count>  (74) 
20

>  <_hydrogen_acceptors>  (74) 
5

>  <_hydrogen_donors>  (74) 
4

>  <_rotatable_bonds>  (74) 
8

>  <_amide_bonds>  (74) 
0

>  <_ring_count>  (74) 
2

$$$$
Phloridzin
     RDKit          3D

 55 57  0  0  0  0  0  0  0  0999 V2000
   -4.5790   -1.9535   -2.6627 O   0  0  0  0  0  0  0  0  0  0  0  0
   -3.8137   -1.8981   -1.4885 C   0  0  0  0  0  0  0  0  0  0  0  0
   -3.2991   -0.4733   -1.2281 C   0  0  0  0  0  0  0  0  0  0  0  0
   -2.4260   -0.5124   -0.1024 O   0  0  0  0  0  0  0  0  0  0  0  0
   -2.3126    0.7133    0.6174 C   0  0  0  0  0  0  0  0  0  0  0  0
   -1.0236    0.7777    1.2248 O   0  0  0  0  0  0  0  0  0  0  0  0
   -0.5247   -0.1314    2.1738 C   0  0  0  0  0  0  0  0  0  0  0  0
   -1.3230   -1.1555    2.7196 C   0  0  0  0  0  0  0  0  0  0  0  0
   -0.7839   -2.0586    3.6435 C   0  0  0  0  0  0  0  0  0  0  0  0
   -1.5687   -3.0761    4.1819 O   0  0  0  0  0  0  0  0  0  0  0  0
    0.5516   -1.9422    4.0324 C   0  0  0  0  0  0  0  0  0  0  0  0
    1.3571   -0.9241    3.5070 C   0  0  0  0  0  0  0  0  0  0  0  0
    2.6837   -0.8034    3.9212 O   0  0  0  0  0  0  0  0  0  0  0  0
    0.8207   -0.0166    2.5741 C   0  0  0  0  0  0  0  0  0  0  0  0
    1.6628    1.0505    2.0003 C   0  0  0  0  0  0  0  0  0  0  0  0
    1.3360    2.2563    2.1675 O   0  0  0  0  0  0  0  0  0  0  0  0
    2.8276    0.7170    1.1154 C   0  0  0  0  0  0  0  0  0  0  0  0
    2.3679    0.6092   -0.3413 C   0  0  0  0  0  0  0  0  0  0  0  0
    3.5253    0.2611   -1.2376 C   0  0  0  0  0  0  0  0  0  0  0  0
    4.3152    1.2759   -1.8019 C   0  0  0  0  0  0  0  0  0  0  0  0
    5.4098    0.9504   -2.6087 C   0  0  0  0  0  0  0  0  0  0  0  0
    5.7314   -0.3922   -2.8507 C   0  0  0  0  0  0  0  0  0  0  0  0
    6.8195   -0.7286   -3.6529 O   0  0  0  0  0  0  0  0  0  0  0  0
    4.9548   -1.4056   -2.2795 C   0  0  0  0  0  0  0  0  0  0  0  0
    3.8597   -1.0826   -1.4724 C   0  0  0  0  0  0  0  0  0  0  0  0
   -2.5002    1.9656   -0.2590 C   0  0  0  0  0  0  0  0  0  0  0  0
   -1.5049    1.9815   -1.2539 O   0  0  0  0  0  0  0  0  0  0  0  0
   -3.9184    1.9681   -0.8855 C   0  0  0  0  0  0  0  0  0  0  0  0
   -3.9114    2.6345   -2.1231 O   0  0  0  0  0  0  0  0  0  0  0  0
   -4.4685    0.5327   -1.0750 C   0  0  0  0  0  0  0  0  0  0  0  0
   -5.2597    0.1666    0.0288 O   0  0  0  0  0  0  0  0  0  0  0  0
   -3.9401   -1.9043   -3.4210 H   0  0  0  0  0  0  0  0  0  0  0  0
   -2.9520   -2.6002   -1.5643 H   0  0  0  0  0  0  0  0  0  0  0  0
   -4.4394   -2.2366   -0.6355 H   0  0  0  0  0  0  0  0  0  0  0  0
   -2.6995   -0.1801   -2.1189 H   0  0  0  0  0  0  0  0  0  0  0  0
   -3.0797    0.7362    1.4233 H   0  0  0  0  0  0  0  0  0  0  0  0
   -2.3598   -1.2628    2.4331 H   0  0  0  0  0  0  0  0  0  0  0  0
   -2.5415   -3.1897    3.9215 H   0  0  0  0  0  0  0  0  0  0  0  0
    0.9621   -2.6414    4.7503 H   0  0  0  0  0  0  0  0  0  0  0  0
    3.0908   -1.4426    4.5939 H   0  0  0  0  0  0  0  0  0  0  0  0
    3.5995    1.5121    1.2090 H   0  0  0  0  0  0  0  0  0  0  0  0
    3.2858   -0.2446    1.4320 H   0  0  0  0  0  0  0  0  0  0  0  0
    1.5780   -0.1698   -0.4292 H   0  0  0  0  0  0  0  0  0  0  0  0
    1.9166    1.5733   -0.6654 H   0  0  0  0  0  0  0  0  0  0  0  0
    4.0840    2.3175   -1.6159 H   0  0  0  0  0  0  0  0  0  0  0  0
    6.0088    1.7412   -3.0420 H   0  0  0  0  0  0  0  0  0  0  0  0
    7.4019   -0.0179   -4.0801 H   0  0  0  0  0  0  0  0  0  0  0  0
    5.2023   -2.4443   -2.4586 H   0  0  0  0  0  0  0  0  0  0  0  0
    3.2736   -1.8785   -1.0295 H   0  0  0  0  0  0  0  0  0  0  0  0
   -2.3948    2.8645    0.3948 H   0  0  0  0  0  0  0  0  0  0  0  0
   -1.3431    2.9323   -1.4892 H   0  0  0  0  0  0  0  0  0  0  0  0
   -4.6054    2.5115   -0.1935 H   0  0  0  0  0  0  0  0  0  0  0  0
   -3.8228    3.6039   -1.9264 H   0  0  0  0  0  0  0  0  0  0  0  0
   -5.0923    0.5000   -1.9999 H   0  0  0  0  0  0  0  0  0  0  0  0
   -6.1386    0.6142   -0.0857 H   0  0  0  0  0  0  0  0  0  0  0  0
  1  2  1  0
  2  3  1  0
  3  4  1  0
  4  5  1  0
  5  6  1  0
  6  7  1  0
  7  8  2  0
  8  9  1  0
  9 10  1  0
  9 11  2  0
 11 12  1  0
 12 13  1  0
 12 14  2  0
 14 15  1  0
 15 16  2  0
 15 17  1  0
 17 18  1  0
 18 19  1  0
 19 20  2  0
 20 21  1  0
 21 22  2  0
 22 23  1  0
 22 24  1  0
 24 25  2  0
  5 26  1  0
 26 27  1  0
 26 28  1  0
 28 29  1  0
 28 30  1  0
 30 31  1  0
 30  3  1  0
 14  7  1  0
 25 19  1  0
  1 32  1  0
  2 33  1  0
  2 34  1  0
  3 35  1  0
  5 36  1  0
  8 37  1  0
 10 38  1  0
 11 39  1  0
 13 40  1  0
 17 41  1  0
 17 42  1  0
 18 43  1  0
 18 44  1  0
 20 45  1  0
 21 46  1  0
 23 47  1  0
 24 48  1  0
 25 49  1  0
 26 50  1  0
 27 51  1  0
 28 52  1  0
 29 53  1  0
 30 54  1  0
 31 55  1  0
M  END
>  <LIG_ID>  (75) 
74

>  <_smiles>  (75) 
OCC1OC(OC2=CC(O)=CC(O)=C2C(=O)CCC2=CC=C(O)C=C2)C(O)C(O)C1O

>  <_name>  (75) 
Phloridzin

>  <_molecular_weight>  (75) 
436.409

>  <_formula>  (75) 
C21H24O10

>  <_logP>  (75) 
-0.20240000000000025

>  <_molecular_wt_calculated>  (75) 
436.4129999999998

>  <_havy_atom_count>  (75) 
31

>  <_hydrogen_acceptors>  (75) 
10

>  <_hydrogen_donors>  (75) 
7

>  <_rotatable_bonds>  (75) 
14

>  <_amide_bonds>  (75) 
0

>  <_ring_count>  (75) 
3

$$$$
Phloretin 2'-O-xylosyl-glucoside
     RDKit          3D

 72 75  0  0  0  0  0  0  0  0999 V2000
   -1.7489    2.9633    0.3631 C   0  0  1  0  0  0  0  0  0  0  0  0
   -0.9743    3.2753   -0.9238 C   0  0  0  0  0  0  0  0  0  0  0  0
   -1.7559    2.9777   -2.0488 O   0  0  0  0  0  0  0  0  0  0  0  0
   -2.0424    1.5892    0.4389 O   0  0  0  0  0  0  0  0  0  0  0  0
   -2.1891    1.2681    1.8088 C   0  0  1  0  0  0  0  0  0  0  0  0
   -1.4846    0.0710    2.0841 O   0  0  0  0  0  0  0  0  0  0  0  0
   -2.2388   -1.0730    1.7135 C   0  0  1  0  0  0  0  0  0  0  0  0
   -1.2694   -2.1680    1.2423 C   0  0  2  0  0  0  0  0  0  0  0  0
   -0.4485   -1.6393    0.1999 O   0  0  0  0  0  0  0  0  0  0  0  0
    0.6099   -2.3274   -0.4225 C   0  0  0  0  0  0  0  0  0  0  0  0
    1.2356   -1.7495   -1.5518 C   0  0  0  0  0  0  0  0  0  0  0  0
    0.7467   -0.4440   -2.0722 C   0  0  0  0  0  0  0  0  0  0  0  0
   -0.4956   -0.2464   -2.1617 O   0  0  0  0  0  0  0  0  0  0  0  0
    1.6813    0.6699   -2.4706 C   0  0  0  0  0  0  0  0  0  0  0  0
    2.6558    1.0132   -1.3379 C   0  0  0  0  0  0  0  0  0  0  0  0
    3.5066    2.1970   -1.7112 C   0  0  0  0  0  0  0  0  0  0  0  0
    3.1268    3.4946   -1.3304 C   0  0  0  0  0  0  0  0  0  0  0  0
    3.9026    4.5949   -1.7074 C   0  0  0  0  0  0  0  0  0  0  0  0
    5.0581    4.4121   -2.4740 C   0  0  0  0  0  0  0  0  0  0  0  0
    5.8213    5.5177   -2.8423 O   0  0  0  0  0  0  0  0  0  0  0  0
    5.4356    3.1204   -2.8657 C   0  0  0  0  0  0  0  0  0  0  0  0
    4.6615    2.0184   -2.4900 C   0  0  0  0  0  0  0  0  0  0  0  0
    2.3012   -2.4346   -2.1796 C   0  0  0  0  0  0  0  0  0  0  0  0
    2.9051   -1.9173   -3.3244 O   0  0  0  0  0  0  0  0  0  0  0  0
    2.7464   -3.6595   -1.6680 C   0  0  0  0  0  0  0  0  0  0  0  0
    2.1338   -4.2266   -0.5530 C   0  0  0  0  0  0  0  0  0  0  0  0
    2.5912   -5.4495   -0.0666 O   0  0  0  0  0  0  0  0  0  0  0  0
    1.0675   -3.5680    0.0649 C   0  0  0  0  0  0  0  0  0  0  0  0
   -1.9571   -3.3038    0.7401 O   0  0  0  0  0  0  0  0  0  0  0  0
   -3.0398   -3.7701    1.5436 C   0  0  2  0  0  0  0  0  0  0  0  0
   -4.3410   -3.6592    0.7353 C   0  0  0  0  0  0  0  0  0  0  0  0
   -4.2550   -4.4689   -0.4051 O   0  0  0  0  0  0  0  0  0  0  0  0
   -3.1671   -3.1356    2.9598 C   0  0  1  0  0  0  0  0  0  0  0  0
   -2.1660   -3.6849    3.7815 O   0  0  0  0  0  0  0  0  0  0  0  0
   -3.0360   -1.5886    2.9364 C   0  0  2  0  0  0  0  0  0  0  0  0
   -4.2966   -0.9706    3.0194 O   0  0  0  0  0  0  0  0  0  0  0  0
   -1.5996    2.4056    2.6594 C   0  0  2  0  0  0  0  0  0  0  0  0
   -2.5911    3.0422    3.4318 O   0  0  0  0  0  0  0  0  0  0  0  0
   -0.9996    3.3512    1.6364 C   0  0  1  0  0  0  0  0  0  0  0  0
    0.3929    3.1596    1.5251 O   0  0  0  0  0  0  0  0  0  0  0  0
   -2.7099    3.5269    0.3321 H   0  0  0  0  0  0  0  0  0  0  0  0
   -0.6678    4.3463   -0.9389 H   0  0  0  0  0  0  0  0  0  0  0  0
   -0.0572    2.6562   -0.9657 H   0  0  0  0  0  0  0  0  0  0  0  0
   -2.4105    3.7180   -2.1441 H   0  0  0  0  0  0  0  0  0  0  0  0
   -3.2754    1.1680    2.0397 H   0  0  0  0  0  0  0  0  0  0  0  0
   -2.9250   -0.8680    0.8563 H   0  0  0  0  0  0  0  0  0  0  0  0
   -0.6126   -2.4615    2.0917 H   0  0  0  0  0  0  0  0  0  0  0  0
    1.0848    1.5734   -2.7228 H   0  0  0  0  0  0  0  0  0  0  0  0
    2.2366    0.4001   -3.3910 H   0  0  0  0  0  0  0  0  0  0  0  0
    2.0874    1.2317   -0.4077 H   0  0  0  0  0  0  0  0  0  0  0  0
    3.3120    0.1414   -1.1247 H   0  0  0  0  0  0  0  0  0  0  0  0
    2.2328    3.6550   -0.7417 H   0  0  0  0  0  0  0  0  0  0  0  0
    3.6041    5.5909   -1.4057 H   0  0  0  0  0  0  0  0  0  0  0  0
    6.6630    5.4186   -3.3978 H   0  0  0  0  0  0  0  0  0  0  0  0
    6.3257    2.9700   -3.4633 H   0  0  0  0  0  0  0  0  0  0  0  0
    4.9597    1.0266   -2.8072 H   0  0  0  0  0  0  0  0  0  0  0  0
    3.6674   -2.3966   -3.7893 H   0  0  0  0  0  0  0  0  0  0  0  0
    3.5656   -4.1807   -2.1477 H   0  0  0  0  0  0  0  0  0  0  0  0
    2.1680   -5.8910    0.7415 H   0  0  0  0  0  0  0  0  0  0  0  0
    0.6096   -4.0292    0.9283 H   0  0  0  0  0  0  0  0  0  0  0  0
   -2.8747   -4.8588    1.7051 H   0  0  0  0  0  0  0  0  0  0  0  0
   -4.5074   -2.6074    0.4209 H   0  0  0  0  0  0  0  0  0  0  0  0
   -5.2038   -3.9919    1.3550 H   0  0  0  0  0  0  0  0  0  0  0  0
   -5.1155   -4.3591   -0.8875 H   0  0  0  0  0  0  0  0  0  0  0  0
   -4.1595   -3.4159    3.3873 H   0  0  0  0  0  0  0  0  0  0  0  0
   -2.4497   -3.5407    4.7224 H   0  0  0  0  0  0  0  0  0  0  0  0
   -2.4813   -1.2861    3.8528 H   0  0  0  0  0  0  0  0  0  0  0  0
   -4.8234   -1.2422    2.2255 H   0  0  0  0  0  0  0  0  0  0  0  0
   -0.8156    2.0284    3.3537 H   0  0  0  0  0  0  0  0  0  0  0  0
   -3.2788    3.4069    2.8144 H   0  0  0  0  0  0  0  0  0  0  0  0
   -1.1915    4.4156    1.8964 H   0  0  0  0  0  0  0  0  0  0  0  0
    0.5595    2.1988    1.3347 H   0  0  0  0  0  0  0  0  0  0  0  0
  1  2  1  0
  2  3  1  0
  1  4  1  0
  4  5  1  0
  5  6  1  0
  6  7  1  0
  7  8  1  0
  8  9  1  0
  9 10  1  0
 10 11  1  0
 11 12  1  0
 12 13  2  0
 12 14  1  0
 14 15  1  0
 15 16  1  0
 16 17  2  0
 17 18  1  0
 18 19  2  0
 19 20  1  0
 19 21  1  0
 21 22  2  0
 11 23  2  0
 23 24  1  0
 23 25  1  0
 25 26  2  0
 26 27  1  0
 26 28  1  0
  8 29  1  0
 29 30  1  0
 30 31  1  0
 31 32  1  0
 30 33  1  0
 33 34  1  0
 33 35  1  0
 35 36  1  0
  5 37  1  0
 37 38  1  0
 37 39  1  0
 39 40  1  0
 39  1  1  0
 35  7  1  0
 28 10  2  0
 22 16  1  0
  1 41  1  6
  2 42  1  0
  2 43  1  0
  3 44  1  0
  5 45  1  1
  7 46  1  6
  8 47  1  1
 14 48  1  0
 14 49  1  0
 15 50  1  0
 15 51  1  0
 17 52  1  0
 18 53  1  0
 20 54  1  0
 21 55  1  0
 22 56  1  0
 24 57  1  0
 25 58  1  0
 27 59  1  0
 28 60  1  0
 30 61  1  1
 31 62  1  0
 31 63  1  0
 32 64  1  0
 33 65  1  1
 34 66  1  0
 35 67  1  1
 36 68  1  0
 37 69  1  1
 38 70  1  0
 39 71  1  1
 40 72  1  0
M  END
>  <LIG_ID>  (76) 
75

>  <_smiles>  (76) 
[H][C@]1(CO)O[C@@]([H])(O[C@@]2([H])[C@]([H])(OC3=C(C(=O)CCC4=CC=C(O)C=C4)C(O)=CC(O)=C3)O[C@]([H])(CO)[C@@]([H])(O)[C@]2([H])O)[C@]([H])(O)[C@@]1([H])O

>  <_name>  (76) 
Phloretin 2'-O-xylosyl-glucoside

>  <_molecular_weight>  (76) 
568.524

>  <_formula>  (76) 
C26H32O14

>  <_logP>  (76) 
-1.7391000000000005

>  <_molecular_wt_calculated>  (76) 
568.5280000000016

>  <_havy_atom_count>  (76) 
40

>  <_hydrogen_acceptors>  (76) 
14

>  <_hydrogen_donors>  (76) 
9

>  <_rotatable_bonds>  (76) 
19

>  <_amide_bonds>  (76) 
0

>  <_ring_count>  (76) 
4

$$$$
3-Hydroxyphloretin 2'-O-xylosyl-glucoside
     RDKit          3D

 73 76  0  0  0  0  0  0  0  0999 V2000
    7.9984   -0.0684   -0.4654 C   0  0  2  0  0  0  0  0  0  0  0  0
    8.5167   -0.1361   -1.7692 O   0  0  0  0  0  0  0  0  0  0  0  0
    6.9531   -1.1765   -0.2794 C   0  0  0  0  0  0  0  0  0  0  0  0
    5.8364   -0.9833   -1.1299 O   0  0  0  0  0  0  0  0  0  0  0  0
    5.1412    0.2137   -0.8054 C   0  0  1  0  0  0  0  0  0  0  0  0
    4.6462    0.1803    0.5247 O   0  0  0  0  0  0  0  0  0  0  0  0
    3.5041   -0.6515    0.6289 C   0  0  0  0  0  0  0  0  0  0  0  0
    2.2172    0.1836    0.5513 C   0  0  1  0  0  0  0  0  0  0  0  0
    1.1124   -0.7087    0.5527 O   0  0  0  0  0  0  0  0  0  0  0  0
   -0.1005    0.0187    0.5930 C   0  0  1  0  0  0  0  0  0  0  0  0
   -1.1843   -0.8557    0.2863 O   0  0  0  0  0  0  0  0  0  0  0  0
   -1.4083   -1.4635   -0.9613 C   0  0  0  0  0  0  0  0  0  0  0  0
   -0.5365   -1.2754   -2.0512 C   0  0  0  0  0  0  0  0  0  0  0  0
   -0.8040   -1.8790   -3.2850 C   0  0  0  0  0  0  0  0  0  0  0  0
    0.0545   -1.6932   -4.3666 O   0  0  0  0  0  0  0  0  0  0  0  0
   -1.9397   -2.6756   -3.4382 C   0  0  0  0  0  0  0  0  0  0  0  0
   -2.8143   -2.8812   -2.3673 C   0  0  0  0  0  0  0  0  0  0  0  0
   -3.9239   -3.7057   -2.5655 O   0  0  0  0  0  0  0  0  0  0  0  0
   -2.5519   -2.2696   -1.1218 C   0  0  0  0  0  0  0  0  0  0  0  0
   -3.4724   -2.4417    0.0159 C   0  0  0  0  0  0  0  0  0  0  0  0
   -3.1053   -3.1152    1.0157 O   0  0  0  0  0  0  0  0  0  0  0  0
   -4.7901   -1.7260    0.0440 C   0  0  0  0  0  0  0  0  0  0  0  0
   -4.6300   -0.3442    0.6843 C   0  0  0  0  0  0  0  0  0  0  0  0
   -5.9482    0.3808    0.7147 C   0  0  0  0  0  0  0  0  0  0  0  0
   -6.3487    1.1672   -0.3774 C   0  0  0  0  0  0  0  0  0  0  0  0
   -7.5909    1.8179   -0.3652 C   0  0  0  0  0  0  0  0  0  0  0  0
   -7.9859    2.6043   -1.4460 O   0  0  0  0  0  0  0  0  0  0  0  0
   -8.4424    1.6762    0.7383 C   0  0  0  0  0  0  0  0  0  0  0  0
   -9.6757    2.3252    0.7478 O   0  0  0  0  0  0  0  0  0  0  0  0
   -8.0505    0.8810    1.8239 C   0  0  0  0  0  0  0  0  0  0  0  0
   -6.8127    0.2324    1.8104 C   0  0  0  0  0  0  0  0  0  0  0  0
   -0.3145    0.6082    2.0039 C   0  0  2  0  0  0  0  0  0  0  0  0
   -1.0308    1.8118    1.8933 O   0  0  0  0  0  0  0  0  0  0  0  0
    1.0381    0.8531    2.7234 C   0  0  1  0  0  0  0  0  0  0  0  0
    1.4280   -0.3062    3.4166 O   0  0  0  0  0  0  0  0  0  0  0  0
    2.1434    1.2258    1.7191 C   0  0  2  0  0  0  0  0  0  0  0  0
    1.8784    2.5055    1.2030 O   0  0  0  0  0  0  0  0  0  0  0  0
    6.0417    1.4535   -1.0004 C   0  0  2  0  0  0  0  0  0  0  0  0
    6.3367    1.6201   -2.3642 O   0  0  0  0  0  0  0  0  0  0  0  0
    7.3583    1.3087   -0.2096 C   0  0  1  0  0  0  0  0  0  0  0  0
    7.1177    1.4578    1.1672 O   0  0  0  0  0  0  0  0  0  0  0  0
    8.8203   -0.2366    0.2696 H   0  0  0  0  0  0  0  0  0  0  0  0
    9.3597    0.3884   -1.7702 H   0  0  0  0  0  0  0  0  0  0  0  0
    7.4208   -2.1507   -0.5358 H   0  0  0  0  0  0  0  0  0  0  0  0
    6.6429   -1.2518    0.7868 H   0  0  0  0  0  0  0  0  0  0  0  0
    4.2989    0.3252   -1.5273 H   0  0  0  0  0  0  0  0  0  0  0  0
    3.4793   -1.4621   -0.1381 H   0  0  0  0  0  0  0  0  0  0  0  0
    3.5394   -1.1651    1.6133 H   0  0  0  0  0  0  0  0  0  0  0  0
    2.2389    0.7174   -0.4265 H   0  0  0  0  0  0  0  0  0  0  0  0
   -0.0987    0.8449   -0.1591 H   0  0  0  0  0  0  0  0  0  0  0  0
    0.3468   -0.6597   -1.9556 H   0  0  0  0  0  0  0  0  0  0  0  0
    0.8881   -1.1221   -4.2899 H   0  0  0  0  0  0  0  0  0  0  0  0
   -2.1410   -3.1440   -4.3937 H   0  0  0  0  0  0  0  0  0  0  0  0
   -4.5764   -3.9353   -1.8265 H   0  0  0  0  0  0  0  0  0  0  0  0
   -5.1798   -1.6145   -0.9915 H   0  0  0  0  0  0  0  0  0  0  0  0
   -5.5225   -2.3286    0.6246 H   0  0  0  0  0  0  0  0  0  0  0  0
   -3.8879    0.2530    0.1091 H   0  0  0  0  0  0  0  0  0  0  0  0
   -4.2345   -0.4524    1.7187 H   0  0  0  0  0  0  0  0  0  0  0  0
   -5.6972    1.2725   -1.2366 H   0  0  0  0  0  0  0  0  0  0  0  0
   -7.3925    2.7254   -2.2584 H   0  0  0  0  0  0  0  0  0  0  0  0
  -10.3129    2.2409    1.5312 H   0  0  0  0  0  0  0  0  0  0  0  0
   -8.7061    0.7623    2.6771 H   0  0  0  0  0  0  0  0  0  0  0  0
   -6.5284   -0.3860    2.6528 H   0  0  0  0  0  0  0  0  0  0  0  0
   -0.9126   -0.1174    2.6061 H   0  0  0  0  0  0  0  0  0  0  0  0
   -1.4171    2.0006    2.7884 H   0  0  0  0  0  0  0  0  0  0  0  0
    0.9322    1.6911    3.4530 H   0  0  0  0  0  0  0  0  0  0  0  0
    0.8791   -0.3464    4.2431 H   0  0  0  0  0  0  0  0  0  0  0  0
    3.1044    1.2662    2.2852 H   0  0  0  0  0  0  0  0  0  0  0  0
    2.7186    2.8211    0.7779 H   0  0  0  0  0  0  0  0  0  0  0  0
    5.5023    2.3574   -0.6299 H   0  0  0  0  0  0  0  0  0  0  0  0
    5.5293    2.0119   -2.7890 H   0  0  0  0  0  0  0  0  0  0  0  0
    8.0734    2.0992   -0.5391 H   0  0  0  0  0  0  0  0  0  0  0  0
    6.9725    2.4263    1.3315 H   0  0  0  0  0  0  0  0  0  0  0  0
  1  2  1  0
  1  3  1  0
  3  4  1  0
  4  5  1  0
  5  6  1  0
  6  7  1  0
  7  8  1  0
  8  9  1  0
  9 10  1  0
 10 11  1  0
 11 12  1  0
 12 13  2  0
 13 14  1  0
 14 15  1  0
 14 16  2  0
 16 17  1  0
 17 18  1  0
 17 19  2  0
 19 20  1  0
 20 21  2  0
 20 22  1  0
 22 23  1  0
 23 24  1  0
 24 25  2  0
 25 26  1  0
 26 27  1  0
 26 28  2  0
 28 29  1  0
 28 30  1  0
 30 31  2  0
 10 32  1  0
 32 33  1  0
 32 34  1  0
 34 35  1  0
 34 36  1  0
 36 37  1  0
  5 38  1  0
 38 39  1  0
 38 40  1  0
 40 41  1  0
 40  1  1  0
 36  8  1  0
 19 12  1  0
 31 24  1  0
  1 42  1  1
  2 43  1  0
  3 44  1  0
  3 45  1  0
  5 46  1  6
  7 47  1  0
  7 48  1  0
  8 49  1  6
 10 50  1  6
 13 51  1  0
 15 52  1  0
 16 53  1  0
 18 54  1  0
 22 55  1  0
 22 56  1  0
 23 57  1  0
 23 58  1  0
 25 59  1  0
 27 60  1  0
 29 61  1  0
 30 62  1  0
 31 63  1  0
 32 64  1  1
 33 65  1  0
 34 66  1  1
 35 67  1  0
 36 68  1  1
 37 69  1  0
 38 70  1  1
 39 71  1  0
 40 72  1  6
 41 73  1  0
M  END
>  <LIG_ID>  (77) 
76

>  <_smiles>  (77) 
[H][C@@]1(O)CO[C@@]([H])(OC[C@@]2([H])O[C@@]([H])(OC3=CC(O)=CC(O)=C3C(=O)CCC3=CC(O)=C(O)C=C3)[C@]([H])(O)[C@@]([H])(O)[C@]2([H])O)[C@]([H])(O)[C@@]1([H])O

>  <_name>  (77) 
3-Hydroxyphloretin 2'-O-xylosyl-glucoside

>  <_molecular_weight>  (77) 
584.523

>  <_formula>  (77) 
C26H32O15

>  <_logP>  (77) 
-2.0335000000000014

>  <_molecular_wt_calculated>  (77) 
584.5270000000016

>  <_havy_atom_count>  (77) 
41

>  <_hydrogen_acceptors>  (77) 
15

>  <_hydrogen_donors>  (77) 
10

>  <_rotatable_bonds>  (77) 
19

>  <_amide_bonds>  (77) 
0

>  <_ring_count>  (77) 
4

$$$$
3-Hydroxyphloretin 2'-O-glucoside
     RDKit          3D

 56 58  0  0  0  0  0  0  0  0999 V2000
   -3.5017   -1.1935    0.3761 C   0  0  1  0  0  0  0  0  0  0  0  0
   -3.7725   -1.5430    1.8458 C   0  0  0  0  0  0  0  0  0  0  0  0
   -4.1372   -0.3942    2.5624 O   0  0  0  0  0  0  0  0  0  0  0  0
   -2.4604   -0.2391    0.3200 O   0  0  0  0  0  0  0  0  0  0  0  0
   -2.4117    0.3741   -0.9603 C   0  0  1  0  0  0  0  0  0  0  0  0
   -1.2218    1.1568   -1.0450 O   0  0  0  0  0  0  0  0  0  0  0  0
   -0.9034    2.2469   -0.2158 C   0  0  0  0  0  0  0  0  0  0  0  0
   -1.8109    2.7526    0.7349 C   0  0  0  0  0  0  0  0  0  0  0  0
   -1.4499    3.8243    1.5592 C   0  0  0  0  0  0  0  0  0  0  0  0
   -2.3421    4.3231    2.5059 O   0  0  0  0  0  0  0  0  0  0  0  0
   -0.1857    4.4027    1.4349 C   0  0  0  0  0  0  0  0  0  0  0  0
    0.7260    3.9236    0.4900 C   0  0  0  0  0  0  0  0  0  0  0  0
    1.9682    4.5534    0.3875 O   0  0  0  0  0  0  0  0  0  0  0  0
    0.3699    2.8364   -0.3380 C   0  0  0  0  0  0  0  0  0  0  0  0
    1.3250    2.2818   -1.3135 C   0  0  0  0  0  0  0  0  0  0  0  0
    1.1128    2.4340   -2.5462 O   0  0  0  0  0  0  0  0  0  0  0  0
    2.4754    1.4358   -0.8547 C   0  0  0  0  0  0  0  0  0  0  0  0
    2.0255   -0.0165   -0.6741 C   0  0  0  0  0  0  0  0  0  0  0  0
    3.1763   -0.8781   -0.2304 C   0  0  0  0  0  0  0  0  0  0  0  0
    3.4662   -1.0228    1.1358 C   0  0  0  0  0  0  0  0  0  0  0  0
    4.5565   -1.8012    1.5507 C   0  0  0  0  0  0  0  0  0  0  0  0
    4.8408   -1.9510    2.9069 O   0  0  0  0  0  0  0  0  0  0  0  0
    5.3674   -2.4313    0.5976 C   0  0  0  0  0  0  0  0  0  0  0  0
    6.4493   -3.2051    1.0133 O   0  0  0  0  0  0  0  0  0  0  0  0
    5.0874   -2.2776   -0.7672 C   0  0  0  0  0  0  0  0  0  0  0  0
    4.0011   -1.5013   -1.1796 C   0  0  0  0  0  0  0  0  0  0  0  0
   -2.4089   -0.6601   -2.1272 C   0  0  2  0  0  0  0  0  0  0  0  0
   -3.6401   -0.6208   -2.8040 O   0  0  0  0  0  0  0  0  0  0  0  0
   -2.1687   -2.0963   -1.6176 C   0  0  1  0  0  0  0  0  0  0  0  0
   -0.8159   -2.2810   -1.2721 O   0  0  0  0  0  0  0  0  0  0  0  0
   -3.1081   -2.4568   -0.4364 C   0  0  2  0  0  0  0  0  0  0  0  0
   -4.2669   -3.0721   -0.9407 O   0  0  0  0  0  0  0  0  0  0  0  0
   -4.4466   -0.7636   -0.0369 H   0  0  0  0  0  0  0  0  0  0  0  0
   -4.5751   -2.3113    1.9221 H   0  0  0  0  0  0  0  0  0  0  0  0
   -2.8524   -1.9645    2.3047 H   0  0  0  0  0  0  0  0  0  0  0  0
   -5.0759   -0.1890    2.3123 H   0  0  0  0  0  0  0  0  0  0  0  0
   -3.2817    1.0605   -1.0765 H   0  0  0  0  0  0  0  0  0  0  0  0
   -2.7957    2.3211    0.8465 H   0  0  0  0  0  0  0  0  0  0  0  0
   -3.2673    3.9266    2.6233 H   0  0  0  0  0  0  0  0  0  0  0  0
    0.0877    5.2352    2.0713 H   0  0  0  0  0  0  0  0  0  0  0  0
    2.6604    4.2931   -0.3036 H   0  0  0  0  0  0  0  0  0  0  0  0
    2.8684    1.8266    0.1091 H   0  0  0  0  0  0  0  0  0  0  0  0
    3.2933    1.4871   -1.6066 H   0  0  0  0  0  0  0  0  0  0  0  0
    1.2112   -0.0637    0.0824 H   0  0  0  0  0  0  0  0  0  0  0  0
    1.6105   -0.4040   -1.6311 H   0  0  0  0  0  0  0  0  0  0  0  0
    2.8469   -0.5307    1.8759 H   0  0  0  0  0  0  0  0  0  0  0  0
    4.2733   -1.5073    3.6196 H   0  0  0  0  0  0  0  0  0  0  0  0
    7.0538   -3.6721    0.3474 H   0  0  0  0  0  0  0  0  0  0  0  0
    5.7132   -2.7570   -1.5091 H   0  0  0  0  0  0  0  0  0  0  0  0
    3.8031   -1.3851   -2.2380 H   0  0  0  0  0  0  0  0  0  0  0  0
   -1.5950   -0.4167   -2.8515 H   0  0  0  0  0  0  0  0  0  0  0  0
   -3.6355    0.2017   -3.3604 H   0  0  0  0  0  0  0  0  0  0  0  0
   -2.3729   -2.7954   -2.4590 H   0  0  0  0  0  0  0  0  0  0  0  0
   -0.6236   -1.7381   -0.4652 H   0  0  0  0  0  0  0  0  0  0  0  0
   -2.5641   -3.1825    0.2149 H   0  0  0  0  0  0  0  0  0  0  0  0
   -4.6781   -3.5747   -0.1900 H   0  0  0  0  0  0  0  0  0  0  0  0
  1  2  1  0
  2  3  1  0
  1  4  1  0
  4  5  1  0
  5  6  1  0
  6  7  1  0
  7  8  2  0
  8  9  1  0
  9 10  1  0
  9 11  2  0
 11 12  1  0
 12 13  1  0
 12 14  2  0
 14 15  1  0
 15 16  2  0
 15 17  1  0
 17 18  1  0
 18 19  1  0
 19 20  2  0
 20 21  1  0
 21 22  1  0
 21 23  2  0
 23 24  1  0
 23 25  1  0
 25 26  2  0
  5 27  1  0
 27 28  1  0
 27 29  1  0
 29 30  1  0
 29 31  1  0
 31 32  1  0
 31  1  1  0
 14  7  1  0
 26 19  1  0
  1 33  1  6
  2 34  1  0
  2 35  1  0
  3 36  1  0
  5 37  1  6
  8 38  1  0
 10 39  1  0
 11 40  1  0
 13 41  1  0
 17 42  1  0
 17 43  1  0
 18 44  1  0
 18 45  1  0
 20 46  1  0
 22 47  1  0
 24 48  1  0
 25 49  1  0
 26 50  1  0
 27 51  1  6
 28 52  1  0
 29 53  1  6
 30 54  1  0
 31 55  1  1
 32 56  1  0
M  END
>  <LIG_ID>  (78) 
77

>  <_smiles>  (78) 
[H][C@]1(CO)O[C@@]([H])(OC2=CC(O)=CC(O)=C2C(=O)CCC2=CC(O)=C(O)C=C2)[C@]([H])(O)[C@@]([H])(O)[C@]1([H])O

>  <_name>  (78) 
3-Hydroxyphloretin 2'-O-glucoside

>  <_molecular_weight>  (78) 
452.409

>  <_formula>  (78) 
C21H24O11

>  <_logP>  (78) 
-0.49680000000000035

>  <_molecular_wt_calculated>  (78) 
452.4119999999998

>  <_havy_atom_count>  (78) 
32

>  <_hydrogen_acceptors>  (78) 
11

>  <_hydrogen_donors>  (78) 
8

>  <_rotatable_bonds>  (78) 
15

>  <_amide_bonds>  (78) 
0

>  <_ring_count>  (78) 
3

$$$$
Dihydroquercetin 3-O-rhamnoside
     RDKit          3D

 54 57  0  0  0  0  0  0  0  0999 V2000
    2.4594   -1.5685    1.8216 C   0  0  0  0  0  0  0  0  0  0  0  0
    3.1828   -0.8704    0.6646 C   0  0  2  0  0  0  0  0  0  0  0  0
    2.4242    0.2441    0.2019 O   0  0  0  0  0  0  0  0  0  0  0  0
    1.5189   -0.1213   -0.8274 C   0  0  1  0  0  0  0  0  0  0  0  0
    0.6326    0.9524   -1.0823 O   0  0  0  0  0  0  0  0  0  0  0  0
   -0.2897    1.1294   -0.0152 C   0  0  2  0  0  0  0  0  0  0  0  0
   -1.7016    0.7131   -0.4821 C   0  0  2  0  0  0  0  0  0  0  0  0
   -2.6848    1.0965    0.4819 O   0  0  0  0  0  0  0  0  0  0  0  0
   -2.6638    2.3488    1.1045 C   0  0  0  0  0  0  0  0  0  0  0  0
   -3.8020    2.7996    1.7783 C   0  0  0  0  0  0  0  0  0  0  0  0
   -3.8094    4.0576    2.3847 C   0  0  0  0  0  0  0  0  0  0  0  0
   -4.9557    4.4955    3.0441 O   0  0  0  0  0  0  0  0  0  0  0  0
   -2.6680    4.8666    2.3234 C   0  0  0  0  0  0  0  0  0  0  0  0
   -1.5120    4.4180    1.6671 C   0  0  0  0  0  0  0  0  0  0  0  0
   -0.3800    5.2321    1.6325 O   0  0  0  0  0  0  0  0  0  0  0  0
   -1.5036    3.1448    1.0566 C   0  0  0  0  0  0  0  0  0  0  0  0
   -0.3027    2.5810    0.3921 C   0  0  0  0  0  0  0  0  0  0  0  0
    0.7335    3.2809    0.2285 O   0  0  0  0  0  0  0  0  0  0  0  0
   -1.7780   -0.7762   -0.7184 C   0  0  0  0  0  0  0  0  0  0  0  0
   -1.8109   -1.6684    0.3660 C   0  0  0  0  0  0  0  0  0  0  0  0
   -1.8047   -3.0531    0.1587 C   0  0  0  0  0  0  0  0  0  0  0  0
   -1.8333   -3.8805    1.2831 O   0  0  0  0  0  0  0  0  0  0  0  0
   -1.7643   -3.5593   -1.1621 C   0  0  0  0  0  0  0  0  0  0  0  0
   -1.7572   -4.9262   -1.4468 O   0  0  0  0  0  0  0  0  0  0  0  0
   -1.7268   -2.6668   -2.2392 C   0  0  0  0  0  0  0  0  0  0  0  0
   -1.7294   -1.2880   -2.0228 C   0  0  0  0  0  0  0  0  0  0  0  0
    2.2929   -0.4463   -2.1241 C   0  0  2  0  0  0  0  0  0  0  0  0
    1.4894   -1.2713   -2.9316 O   0  0  0  0  0  0  0  0  0  0  0  0
    3.6502   -1.1331   -1.8109 C   0  0  2  0  0  0  0  0  0  0  0  0
    4.0118   -2.0341   -2.8263 O   0  0  0  0  0  0  0  0  0  0  0  0
    3.5791   -1.8720   -0.4633 C   0  0  1  0  0  0  0  0  0  0  0  0
    4.7951   -2.5143   -0.1660 O   0  0  0  0  0  0  0  0  0  0  0  0
    2.2221   -0.8298    2.6161 H   0  0  0  0  0  0  0  0  0  0  0  0
    1.5126   -2.0361    1.4792 H   0  0  0  0  0  0  0  0  0  0  0  0
    3.1099   -2.3573    2.2557 H   0  0  0  0  0  0  0  0  0  0  0  0
    4.1198   -0.4472    1.0877 H   0  0  0  0  0  0  0  0  0  0  0  0
    0.9369   -1.0286   -0.5371 H   0  0  0  0  0  0  0  0  0  0  0  0
   -0.0300    0.5532    0.9066 H   0  0  0  0  0  0  0  0  0  0  0  0
   -1.9314    1.2544   -1.4280 H   0  0  0  0  0  0  0  0  0  0  0  0
   -4.6861    2.1757    1.8192 H   0  0  0  0  0  0  0  0  0  0  0  0
   -4.9942    5.4028    3.4938 H   0  0  0  0  0  0  0  0  0  0  0  0
   -2.6762    5.8421    2.7934 H   0  0  0  0  0  0  0  0  0  0  0  0
   -0.3687    6.1470    2.0682 H   0  0  0  0  0  0  0  0  0  0  0  0
   -1.8252   -1.2868    1.3798 H   0  0  0  0  0  0  0  0  0  0  0  0
   -1.8243   -4.8894    1.2420 H   0  0  0  0  0  0  0  0  0  0  0  0
   -1.7856   -5.6496   -0.7429 H   0  0  0  0  0  0  0  0  0  0  0  0
   -1.6874   -3.0460   -3.2526 H   0  0  0  0  0  0  0  0  0  0  0  0
   -1.6790   -0.6204   -2.8740 H   0  0  0  0  0  0  0  0  0  0  0  0
    2.5079    0.5121   -2.6559 H   0  0  0  0  0  0  0  0  0  0  0  0
    1.7416   -1.0920   -3.8749 H   0  0  0  0  0  0  0  0  0  0  0  0
    4.4341   -0.3427   -1.7241 H   0  0  0  0  0  0  0  0  0  0  0  0
    4.3027   -1.4864   -3.6017 H   0  0  0  0  0  0  0  0  0  0  0  0
    2.7976   -2.6601   -0.5520 H   0  0  0  0  0  0  0  0  0  0  0  0
    5.5107   -1.8259   -0.1693 H   0  0  0  0  0  0  0  0  0  0  0  0
  1  2  1  0
  2  3  1  0
  3  4  1  0
  4  5  1  0
  5  6  1  0
  6  7  1  0
  7  8  1  0
  8  9  1  0
  9 10  2  0
 10 11  1  0
 11 12  1  0
 11 13  2  0
 13 14  1  0
 14 15  1  0
 14 16  2  0
 16 17  1  0
 17 18  2  0
  7 19  1  0
 19 20  2  0
 20 21  1  0
 21 22  1  0
 21 23  2  0
 23 24  1  0
 23 25  1  0
 25 26  2  0
  4 27  1  0
 27 28  1  0
 27 29  1  0
 29 30  1  0
 29 31  1  0
 31 32  1  0
 31  2  1  0
 17  6  1  0
 26 19  1  0
 16  9  1  0
  1 33  1  0
  1 34  1  0
  1 35  1  0
  2 36  1  1
  4 37  1  1
  6 38  1  1
  7 39  1  6
 10 40  1  0
 12 41  1  0
 13 42  1  0
 15 43  1  0
 20 44  1  0
 22 45  1  0
 24 46  1  0
 25 47  1  0
 26 48  1  0
 27 49  1  6
 28 50  1  0
 29 51  1  1
 30 52  1  0
 31 53  1  6
 32 54  1  0
M  END
>  <LIG_ID>  (79) 
78

>  <_smiles>  (79) 
C[C@@H]1O[C@@H](O[C@@H]2[C@H](OC3=CC(O)=CC(O)=C3C2=O)C2=CC(O)=C(O)C=C2)[C@H](O)[C@H](O)[C@H]1O

>  <_name>  (79) 
Dihydroquercetin 3-O-rhamnoside

>  <_molecular_weight>  (79) 
450.393

>  <_formula>  (79) 
C21H22O11

>  <_logP>  (79) 
0.03809999999999941

>  <_molecular_wt_calculated>  (79) 
450.39599999999984

>  <_havy_atom_count>  (79) 
32

>  <_hydrogen_acceptors>  (79) 
11

>  <_hydrogen_donors>  (79) 
7

>  <_rotatable_bonds>  (79) 
11

>  <_amide_bonds>  (79) 
0

>  <_ring_count>  (79) 
4

$$$$
Dihydroquercetin
     RDKit          3D

 34 36  0  0  0  0  0  0  0  0999 V2000
   -0.4678   -2.1360   -1.6555 O   0  0  0  0  0  0  0  0  0  0  0  0
    0.1532   -1.4015   -0.6307 C   0  0  0  0  0  0  0  0  0  0  0  0
   -0.2969    0.0686   -0.7058 C   0  0  2  0  0  0  0  0  0  0  0  0
    0.4481    0.8709    0.2148 O   0  0  0  0  0  0  0  0  0  0  0  0
    1.8177    0.6857    0.4459 C   0  0  0  0  0  0  0  0  0  0  0  0
    2.5253    1.6693    1.1408 C   0  0  0  0  0  0  0  0  0  0  0  0
    3.8922    1.5213    1.3755 C   0  0  0  0  0  0  0  0  0  0  0  0
    4.5859    2.5230    2.0510 O   0  0  0  0  0  0  0  0  0  0  0  0
    4.5514    0.3672    0.9384 C   0  0  0  0  0  0  0  0  0  0  0  0
    3.8533   -0.6496    0.2754 C   0  0  0  0  0  0  0  0  0  0  0  0
    4.5603   -1.8110   -0.0441 O   0  0  0  0  0  0  0  0  0  0  0  0
    2.4725   -0.4790   -0.0086 C   0  0  0  0  0  0  0  0  0  0  0  0
    1.6534   -1.4552   -0.7686 C   0  0  0  0  0  0  0  0  0  0  0  0
    2.1826   -2.2837   -1.5570 O   0  0  0  0  0  0  0  0  0  0  0  0
   -1.7736    0.1990   -0.4153 C   0  0  0  0  0  0  0  0  0  0  0  0
   -2.6912    0.3594   -1.4673 C   0  0  0  0  0  0  0  0  0  0  0  0
   -4.0656    0.4519   -1.2042 C   0  0  0  0  0  0  0  0  0  0  0  0
   -4.9741    0.6172   -2.2482 O   0  0  0  0  0  0  0  0  0  0  0  0
   -4.5309    0.3760    0.1147 C   0  0  0  0  0  0  0  0  0  0  0  0
   -5.8974    0.4696    0.3723 O   0  0  0  0  0  0  0  0  0  0  0  0
   -3.6209    0.2039    1.1660 C   0  0  0  0  0  0  0  0  0  0  0  0
   -2.2517    0.1111    0.9034 C   0  0  0  0  0  0  0  0  0  0  0  0
   -0.4345   -3.0908   -1.3848 H   0  0  0  0  0  0  0  0  0  0  0  0
   -0.1222   -1.8192    0.3662 H   0  0  0  0  0  0  0  0  0  0  0  0
   -0.0823    0.4494   -1.7303 H   0  0  0  0  0  0  0  0  0  0  0  0
    2.0127    2.5585    1.4861 H   0  0  0  0  0  0  0  0  0  0  0  0
    5.5786    2.4453    2.2395 H   0  0  0  0  0  0  0  0  0  0  0  0
    5.6080    0.2437    1.1418 H   0  0  0  0  0  0  0  0  0  0  0  0
    4.1251   -2.6752   -0.3318 H   0  0  0  0  0  0  0  0  0  0  0  0
   -2.3406    0.4105   -2.4908 H   0  0  0  0  0  0  0  0  0  0  0  0
   -4.6686    0.6749   -3.2128 H   0  0  0  0  0  0  0  0  0  0  0  0
   -6.2637    0.4173    1.3158 H   0  0  0  0  0  0  0  0  0  0  0  0
   -3.9741    0.1387    2.1872 H   0  0  0  0  0  0  0  0  0  0  0  0
   -1.5640   -0.0312    1.7278 H   0  0  0  0  0  0  0  0  0  0  0  0
  1  2  1  0
  2  3  1  0
  3  4  1  0
  4  5  1  0
  5  6  2  0
  6  7  1  0
  7  8  1  0
  7  9  2  0
  9 10  1  0
 10 11  1  0
 10 12  2  0
 12 13  1  0
 13 14  2  0
  3 15  1  0
 15 16  2  0
 16 17  1  0
 17 18  1  0
 17 19  2  0
 19 20  1  0
 19 21  1  0
 21 22  2  0
 13  2  1  0
 22 15  1  0
 12  5  1  0
  1 23  1  0
  2 24  1  0
  3 25  1  6
  6 26  1  0
  8 27  1  0
  9 28  1  0
 11 29  1  0
 16 30  1  0
 18 31  1  0
 20 32  1  0
 21 33  1  0
 22 34  1  0
M  END
>  <LIG_ID>  (80) 
79

>  <_smiles>  (80) 
OC1[C@H](OC2=CC(O)=CC(O)=C2C1=O)C1=CC(O)=C(O)C=C1

>  <_name>  (80) 
Dihydroquercetin

>  <_molecular_weight>  (80) 
304.252

>  <_formula>  (80) 
C15H12O7

>  <_logP>  (80) 
1.1862999999999995

>  <_molecular_wt_calculated>  (80) 
304.2539999999998

>  <_havy_atom_count>  (80) 
22

>  <_hydrogen_acceptors>  (80) 
7

>  <_hydrogen_donors>  (80) 
5

>  <_rotatable_bonds>  (80) 
6

>  <_amide_bonds>  (80) 
0

>  <_ring_count>  (80) 
3

$$$$
Dihydromyricetin 3-O-rhamnoside
     RDKit          3D

 55 58  0  0  0  0  0  0  0  0999 V2000
    4.6911    1.4050   -2.2459 C   0  0  0  0  0  0  0  0  0  0  0  0
    3.7997    0.8660   -1.1257 C   0  0  0  0  0  0  0  0  0  0  0  0
    2.4488    0.9629   -1.5477 O   0  0  0  0  0  0  0  0  0  0  0  0
    1.5818    0.3452   -0.6122 C   0  0  0  0  0  0  0  0  0  0  0  0
    0.2715    0.3742   -1.1535 O   0  0  0  0  0  0  0  0  0  0  0  0
   -0.5221   -0.7079   -0.6868 C   0  0  0  0  0  0  0  0  0  0  0  0
   -1.9781   -0.2315   -0.5366 C   0  0  0  0  0  0  0  0  0  0  0  0
   -2.8382   -1.3332   -0.2318 O   0  0  0  0  0  0  0  0  0  0  0  0
   -2.6910   -2.5933   -0.8274 C   0  0  0  0  0  0  0  0  0  0  0  0
   -3.7167   -3.5313   -0.6905 C   0  0  0  0  0  0  0  0  0  0  0  0
   -3.6036   -4.7913   -1.2853 C   0  0  0  0  0  0  0  0  0  0  0  0
   -4.6313   -5.7249   -1.1716 O   0  0  0  0  0  0  0  0  0  0  0  0
   -2.4471   -5.1225   -1.9943 C   0  0  0  0  0  0  0  0  0  0  0  0
   -1.3899   -4.2115   -2.1100 C   0  0  0  0  0  0  0  0  0  0  0  0
   -0.2300   -4.6508   -2.7522 O   0  0  0  0  0  0  0  0  0  0  0  0
   -1.5213   -2.9141   -1.5493 C   0  0  0  0  0  0  0  0  0  0  0  0
   -0.4973   -1.8477   -1.6729 C   0  0  0  0  0  0  0  0  0  0  0  0
    0.3453   -1.8514   -2.6099 O   0  0  0  0  0  0  0  0  0  0  0  0
   -2.0906    0.8196    0.5424 C   0  0  0  0  0  0  0  0  0  0  0  0
   -2.1878    2.1773    0.1990 C   0  0  0  0  0  0  0  0  0  0  0  0
   -2.2381    3.1621    1.1952 C   0  0  0  0  0  0  0  0  0  0  0  0
   -2.3363    4.5075    0.8438 O   0  0  0  0  0  0  0  0  0  0  0  0
   -2.1828    2.7909    2.5494 C   0  0  0  0  0  0  0  0  0  0  0  0
   -2.2286    3.7530    3.5587 O   0  0  0  0  0  0  0  0  0  0  0  0
   -2.0756    1.4385    2.8980 C   0  0  0  0  0  0  0  0  0  0  0  0
   -2.0126    1.0759    4.2423 O   0  0  0  0  0  0  0  0  0  0  0  0
   -2.0283    0.4583    1.8982 C   0  0  0  0  0  0  0  0  0  0  0  0
    1.6079    1.1301    0.7168 C   0  0  0  0  0  0  0  0  0  0  0  0
    1.1368    2.4364    0.4949 O   0  0  0  0  0  0  0  0  0  0  0  0
    3.0455    1.1621    1.2638 C   0  0  0  0  0  0  0  0  0  0  0  0
    3.1005    1.9944    2.3944 O   0  0  0  0  0  0  0  0  0  0  0  0
    4.0206    1.6632    0.1804 C   0  0  0  0  0  0  0  0  0  0  0  0
    5.3448    1.4894    0.6178 O   0  0  0  0  0  0  0  0  0  0  0  0
    4.5112    0.8279   -3.1777 H   0  0  0  0  0  0  0  0  0  0  0  0
    5.7636    1.3032   -1.9757 H   0  0  0  0  0  0  0  0  0  0  0  0
    4.4648    2.4750   -2.4424 H   0  0  0  0  0  0  0  0  0  0  0  0
    4.0839   -0.2012   -0.9676 H   0  0  0  0  0  0  0  0  0  0  0  0
    1.9207   -0.7085   -0.4401 H   0  0  0  0  0  0  0  0  0  0  0  0
   -0.1891   -1.1036    0.3025 H   0  0  0  0  0  0  0  0  0  0  0  0
   -2.3117    0.1943   -1.5103 H   0  0  0  0  0  0  0  0  0  0  0  0
   -4.6083   -3.2730   -0.1329 H   0  0  0  0  0  0  0  0  0  0  0  0
   -5.4822   -5.5168   -0.6621 H   0  0  0  0  0  0  0  0  0  0  0  0
   -2.3555   -6.1082   -2.4337 H   0  0  0  0  0  0  0  0  0  0  0  0
    0.6524   -4.1612   -2.7191 H   0  0  0  0  0  0  0  0  0  0  0  0
   -2.2149    2.4728   -0.8426 H   0  0  0  0  0  0  0  0  0  0  0  0
   -2.3741    4.8019   -0.1251 H   0  0  0  0  0  0  0  0  0  0  0  0
   -2.3036    4.7427    3.3567 H   0  0  0  0  0  0  0  0  0  0  0  0
   -1.9324    0.1066    4.5271 H   0  0  0  0  0  0  0  0  0  0  0  0
   -1.9323   -0.5839    2.1774 H   0  0  0  0  0  0  0  0  0  0  0  0
    0.9571    0.6105    1.4578 H   0  0  0  0  0  0  0  0  0  0  0  0
    0.8067    2.7774    1.3668 H   0  0  0  0  0  0  0  0  0  0  0  0
    3.3247    0.1190    1.5500 H   0  0  0  0  0  0  0  0  0  0  0  0
    3.8801    1.7000    2.9337 H   0  0  0  0  0  0  0  0  0  0  0  0
    3.8187    2.7427   -0.0230 H   0  0  0  0  0  0  0  0  0  0  0  0
    5.5735    2.2819    1.1703 H   0  0  0  0  0  0  0  0  0  0  0  0
  1  2  1  0
  2  3  1  0
  3  4  1  0
  4  5  1  0
  5  6  1  0
  6  7  1  0
  7  8  1  0
  8  9  1  0
  9 10  2  0
 10 11  1  0
 11 12  1  0
 11 13  2  0
 13 14  1  0
 14 15  1  0
 14 16  2  0
 16 17  1  0
 17 18  2  0
  7 19  1  0
 19 20  2  0
 20 21  1  0
 21 22  1  0
 21 23  2  0
 23 24  1  0
 23 25  1  0
 25 26  1  0
 25 27  2  0
  4 28  1  0
 28 29  1  0
 28 30  1  0
 30 31  1  0
 30 32  1  0
 32 33  1  0
 32  2  1  0
 17  6  1  0
 27 19  1  0
 16  9  1  0
  1 34  1  0
  1 35  1  0
  1 36  1  0
  2 37  1  0
  4 38  1  0
  6 39  1  0
  7 40  1  0
 10 41  1  0
 12 42  1  0
 13 43  1  0
 15 44  1  0
 20 45  1  0
 22 46  1  0
 24 47  1  0
 26 48  1  0
 27 49  1  0
 28 50  1  0
 29 51  1  0
 30 52  1  0
 31 53  1  0
 32 54  1  0
 33 55  1  0
M  END
>  <LIG_ID>  (81) 
80

>  <_smiles>  (81) 
CC1OC(OC2C(OC3=CC(O)=CC(O)=C3C2=O)C2=CC(O)=C(O)C(O)=C2)C(O)C(O)C1O

>  <_name>  (81) 
Dihydromyricetin 3-O-rhamnoside

>  <_molecular_weight>  (81) 
466.392

>  <_formula>  (81) 
C21H22O12

>  <_logP>  (81) 
-0.25630000000000036

>  <_molecular_wt_calculated>  (81) 
466.39499999999987

>  <_havy_atom_count>  (81) 
33

>  <_hydrogen_acceptors>  (81) 
12

>  <_hydrogen_donors>  (81) 
8

>  <_rotatable_bonds>  (81) 
12

>  <_amide_bonds>  (81) 
0

>  <_ring_count>  (81) 
4

$$$$
(+)-Catechin
     RDKit          3D

 35 37  0  0  0  0  0  0  0  0999 V2000
   -0.7281    1.5044    2.2411 O   0  0  0  0  0  0  0  0  0  0  0  0
    0.0240    1.0861    1.1313 C   0  0  1  0  0  0  0  0  0  0  0  0
    1.5271    1.1862    1.4528 C   0  0  0  0  0  0  0  0  0  0  0  0
    2.3907    0.5060    0.4110 C   0  0  0  0  0  0  0  0  0  0  0  0
    3.7739    0.7857    0.3006 C   0  0  0  0  0  0  0  0  0  0  0  0
    4.4253    1.6736    1.1597 O   0  0  0  0  0  0  0  0  0  0  0  0
    4.5332    0.1525   -0.6904 C   0  0  0  0  0  0  0  0  0  0  0  0
    3.9480   -0.7789   -1.5511 C   0  0  0  0  0  0  0  0  0  0  0  0
    4.7256   -1.3939   -2.5298 O   0  0  0  0  0  0  0  0  0  0  0  0
    2.5913   -1.0913   -1.4180 C   0  0  0  0  0  0  0  0  0  0  0  0
    1.8179   -0.4685   -0.4351 C   0  0  0  0  0  0  0  0  0  0  0  0
    0.4674   -0.8122   -0.3144 O   0  0  0  0  0  0  0  0  0  0  0  0
   -0.3387   -0.3654    0.7754 C   0  0  2  0  0  0  0  0  0  0  0  0
   -1.7994   -0.4893    0.4097 C   0  0  0  0  0  0  0  0  0  0  0  0
   -2.2652   -0.0345   -0.8366 C   0  0  0  0  0  0  0  0  0  0  0  0
   -3.6257   -0.1250   -1.1635 C   0  0  0  0  0  0  0  0  0  0  0  0
   -4.0848    0.3208   -2.4016 O   0  0  0  0  0  0  0  0  0  0  0  0
   -4.5309   -0.6647   -0.2410 C   0  0  0  0  0  0  0  0  0  0  0  0
   -5.8824   -0.7541   -0.5696 O   0  0  0  0  0  0  0  0  0  0  0  0
   -4.0731   -1.1086    1.0066 C   0  0  0  0  0  0  0  0  0  0  0  0
   -2.7172   -1.0178    1.3322 C   0  0  0  0  0  0  0  0  0  0  0  0
   -0.6686    2.4951    2.2694 H   0  0  0  0  0  0  0  0  0  0  0  0
   -0.2000    1.7374    0.2530 H   0  0  0  0  0  0  0  0  0  0  0  0
    1.7827    2.2656    1.5112 H   0  0  0  0  0  0  0  0  0  0  0  0
    1.7310    0.7199    2.4413 H   0  0  0  0  0  0  0  0  0  0  0  0
    3.9730    2.1166    1.9485 H   0  0  0  0  0  0  0  0  0  0  0  0
    5.5883    0.3779   -0.7840 H   0  0  0  0  0  0  0  0  0  0  0  0
    4.3321   -2.0756   -3.1681 H   0  0  0  0  0  0  0  0  0  0  0  0
    2.1366   -1.8232   -2.0739 H   0  0  0  0  0  0  0  0  0  0  0  0
   -0.1139   -1.0133    1.6528 H   0  0  0  0  0  0  0  0  0  0  0  0
   -1.5721    0.3914   -1.5519 H   0  0  0  0  0  0  0  0  0  0  0  0
   -3.4547    0.7165   -3.0896 H   0  0  0  0  0  0  0  0  0  0  0  0
   -6.5607   -1.1390    0.0774 H   0  0  0  0  0  0  0  0  0  0  0  0
   -4.7683   -1.5218    1.7263 H   0  0  0  0  0  0  0  0  0  0  0  0
   -2.3844   -1.3584    2.3049 H   0  0  0  0  0  0  0  0  0  0  0  0
  1  2  1  0
  2  3  1  0
  3  4  1  0
  4  5  2  0
  5  6  1  0
  5  7  1  0
  7  8  2  0
  8  9  1  0
  8 10  1  0
 10 11  2  0
 11 12  1  0
 12 13  1  0
 13 14  1  0
 14 15  2  0
 15 16  1  0
 16 17  1  0
 16 18  2  0
 18 19  1  0
 18 20  1  0
 20 21  2  0
 13  2  1  0
 21 14  1  0
 11  4  1  0
  1 22  1  0
  2 23  1  6
  3 24  1  0
  3 25  1  0
  6 26  1  0
  7 27  1  0
  9 28  1  0
 10 29  1  0
 13 30  1  1
 15 31  1  0
 17 32  1  0
 19 33  1  0
 20 34  1  0
 21 35  1  0
M  END
>  <LIG_ID>  (82) 
81

>  <_smiles>  (82) 
O[C@H]1CC2=C(O)C=C(O)C=C2O[C@@H]1C1=CC(O)=C(O)C=C1

>  <_name>  (82) 
(+)-Catechin

>  <_molecular_weight>  (82) 
290.268

>  <_formula>  (82) 
C15H14O6

>  <_logP>  (82) 
1.5460999999999994

>  <_molecular_wt_calculated>  (82) 
290.27099999999973

>  <_havy_atom_count>  (82) 
21

>  <_hydrogen_acceptors>  (82) 
6

>  <_hydrogen_donors>  (82) 
5

>  <_rotatable_bonds>  (82) 
6

>  <_amide_bonds>  (82) 
0

>  <_ring_count>  (82) 
3

$$$$
(-)-Epicatechin
     RDKit          3D

 35 37  0  0  0  0  0  0  0  0999 V2000
   -0.4351   -3.3286    0.1544 O   0  0  0  0  0  0  0  0  0  0  0  0
    0.4019   -2.3464   -0.3971 C   0  0  2  0  0  0  0  0  0  0  0  0
    1.1617   -1.5901    0.7081 C   0  0  0  0  0  0  0  0  0  0  0  0
    1.9245   -0.3977    0.1659 C   0  0  0  0  0  0  0  0  0  0  0  0
    2.9248    0.2443    0.9336 C   0  0  0  0  0  0  0  0  0  0  0  0
    3.2334   -0.1563    2.2355 O   0  0  0  0  0  0  0  0  0  0  0  0
    3.6331    1.3221    0.3898 C   0  0  0  0  0  0  0  0  0  0  0  0
    3.3452    1.7880   -0.8983 C   0  0  0  0  0  0  0  0  0  0  0  0
    4.0524    2.8587   -1.4408 O   0  0  0  0  0  0  0  0  0  0  0  0
    2.3352    1.1806   -1.6460 C   0  0  0  0  0  0  0  0  0  0  0  0
    1.6141    0.1070   -1.1176 C   0  0  0  0  0  0  0  0  0  0  0  0
    0.5908   -0.4672   -1.8822 O   0  0  0  0  0  0  0  0  0  0  0  0
   -0.3658   -1.3667   -1.3185 C   0  0  2  0  0  0  0  0  0  0  0  0
   -1.5080   -0.5545   -0.7042 C   0  0  0  0  0  0  0  0  0  0  0  0
   -2.0292    0.5180   -1.4552 C   0  0  0  0  0  0  0  0  0  0  0  0
   -3.0930    1.2900   -0.9773 C   0  0  0  0  0  0  0  0  0  0  0  0
   -3.5624    2.3503   -1.7521 O   0  0  0  0  0  0  0  0  0  0  0  0
   -3.6711    0.9882    0.2640 C   0  0  0  0  0  0  0  0  0  0  0  0
   -4.7293    1.7553    0.7491 O   0  0  0  0  0  0  0  0  0  0  0  0
   -3.1827   -0.0897    1.0098 C   0  0  0  0  0  0  0  0  0  0  0  0
   -2.1208   -0.8609    0.5300 C   0  0  0  0  0  0  0  0  0  0  0  0
   -0.7247   -3.9121   -0.5948 H   0  0  0  0  0  0  0  0  0  0  0  0
    1.1716   -2.8571   -1.0239 H   0  0  0  0  0  0  0  0  0  0  0  0
    0.4646   -1.2374    1.4954 H   0  0  0  0  0  0  0  0  0  0  0  0
    1.8715   -2.3066    1.1746 H   0  0  0  0  0  0  0  0  0  0  0  0
    2.7309   -0.8848    2.7254 H   0  0  0  0  0  0  0  0  0  0  0  0
    4.4061    1.8034    0.9760 H   0  0  0  0  0  0  0  0  0  0  0  0
    4.7897    3.3231   -0.9235 H   0  0  0  0  0  0  0  0  0  0  0  0
    2.1021    1.5498   -2.6369 H   0  0  0  0  0  0  0  0  0  0  0  0
   -0.8030   -1.9579   -2.1517 H   0  0  0  0  0  0  0  0  0  0  0  0
   -1.6071    0.7596   -2.4234 H   0  0  0  0  0  0  0  0  0  0  0  0
   -4.3304    2.9383   -1.4512 H   0  0  0  0  0  0  0  0  0  0  0  0
   -5.1638    1.5555    1.6425 H   0  0  0  0  0  0  0  0  0  0  0  0
   -3.6300   -0.3353    1.9648 H   0  0  0  0  0  0  0  0  0  0  0  0
   -1.7971   -1.6830    1.1447 H   0  0  0  0  0  0  0  0  0  0  0  0
  1  2  1  0
  2  3  1  0
  3  4  1  0
  4  5  2  0
  5  6  1  0
  5  7  1  0
  7  8  2  0
  8  9  1  0
  8 10  1  0
 10 11  2  0
 11 12  1  0
 12 13  1  0
 13 14  1  0
 14 15  2  0
 15 16  1  0
 16 17  1  0
 16 18  2  0
 18 19  1  0
 18 20  1  0
 20 21  2  0
 13  2  1  0
 21 14  1  0
 11  4  1  0
  1 22  1  0
  2 23  1  6
  3 24  1  0
  3 25  1  0
  6 26  1  0
  7 27  1  0
  9 28  1  0
 10 29  1  0
 13 30  1  6
 15 31  1  0
 17 32  1  0
 19 33  1  0
 20 34  1  0
 21 35  1  0
M  END
>  <LIG_ID>  (83) 
82

>  <_smiles>  (83) 
O[C@@H]1CC2=C(O)C=C(O)C=C2O[C@@H]1C1=CC(O)=C(O)C=C1

>  <_name>  (83) 
(-)-Epicatechin

>  <_molecular_weight>  (83) 
290.268

>  <_formula>  (83) 
C15H14O6

>  <_logP>  (83) 
1.5460999999999994

>  <_molecular_wt_calculated>  (83) 
290.27099999999973

>  <_havy_atom_count>  (83) 
21

>  <_hydrogen_acceptors>  (83) 
6

>  <_hydrogen_donors>  (83) 
5

>  <_rotatable_bonds>  (83) 
6

>  <_amide_bonds>  (83) 
0

>  <_ring_count>  (83) 
3

$$$$
(+)-Gallocatechin
     RDKit          3D

 36 38  0  0  0  0  0  0  0  0999 V2000
   -1.0700    0.3723   -3.1966 O   0  0  0  0  0  0  0  0  0  0  0  0
   -0.1972    0.5490   -2.1068 C   0  0  1  0  0  0  0  0  0  0  0  0
   -0.8158    1.4965   -1.0613 C   0  0  0  0  0  0  0  0  0  0  0  0
   -1.8816    0.8194   -0.2337 C   0  0  0  0  0  0  0  0  0  0  0  0
   -2.8485    1.5802    0.4507 C   0  0  0  0  0  0  0  0  0  0  0  0
   -2.8514    2.9708    0.3431 O   0  0  0  0  0  0  0  0  0  0  0  0
   -3.8093    0.9373    1.2441 C   0  0  0  0  0  0  0  0  0  0  0  0
   -3.8046   -0.4542    1.3730 C   0  0  0  0  0  0  0  0  0  0  0  0
   -4.7684   -1.0743    2.1651 O   0  0  0  0  0  0  0  0  0  0  0  0
   -2.8315   -1.2112    0.7098 C   0  0  0  0  0  0  0  0  0  0  0  0
   -1.8669   -0.5819   -0.0823 C   0  0  0  0  0  0  0  0  0  0  0  0
   -0.8982   -1.3632   -0.7264 O   0  0  0  0  0  0  0  0  0  0  0  0
    0.1864   -0.8145   -1.4836 C   0  0  2  0  0  0  0  0  0  0  0  0
    1.4481   -0.7097   -0.6455 C   0  0  0  0  0  0  0  0  0  0  0  0
    2.6982   -0.8176   -1.2727 C   0  0  0  0  0  0  0  0  0  0  0  0
    3.8816   -0.6920   -0.5352 C   0  0  0  0  0  0  0  0  0  0  0  0
    5.1177   -0.8093   -1.1693 O   0  0  0  0  0  0  0  0  0  0  0  0
    3.8328   -0.4460    0.8436 C   0  0  0  0  0  0  0  0  0  0  0  0
    5.0427   -0.3335    1.5332 O   0  0  0  0  0  0  0  0  0  0  0  0
    2.5778   -0.3192    1.4843 C   0  0  0  0  0  0  0  0  0  0  0  0
    2.4515   -0.0638    2.8515 O   0  0  0  0  0  0  0  0  0  0  0  0
    1.4026   -0.4483    0.7350 C   0  0  0  0  0  0  0  0  0  0  0  0
   -1.8903   -0.0767   -2.8645 H   0  0  0  0  0  0  0  0  0  0  0  0
    0.7219    1.0328   -2.5049 H   0  0  0  0  0  0  0  0  0  0  0  0
   -1.2391    2.3790   -1.5885 H   0  0  0  0  0  0  0  0  0  0  0  0
   -0.0197    1.8632   -0.3784 H   0  0  0  0  0  0  0  0  0  0  0  0
   -3.5365    3.5396    0.8268 H   0  0  0  0  0  0  0  0  0  0  0  0
   -4.5585    1.5198    1.7656 H   0  0  0  0  0  0  0  0  0  0  0  0
   -4.7917   -2.0809    2.2802 H   0  0  0  0  0  0  0  0  0  0  0  0
   -2.8197   -2.2890    0.8132 H   0  0  0  0  0  0  0  0  0  0  0  0
    0.3909   -1.5252   -2.3145 H   0  0  0  0  0  0  0  0  0  0  0  0
    2.7541   -0.9977   -2.3395 H   0  0  0  0  0  0  0  0  0  0  0  0
    5.1894   -0.9863   -2.1646 H   0  0  0  0  0  0  0  0  0  0  0  0
    5.1149   -0.1633    2.5258 H   0  0  0  0  0  0  0  0  0  0  0  0
    3.2330    0.0532    3.4800 H   0  0  0  0  0  0  0  0  0  0  0  0
    0.4553   -0.3385    1.2436 H   0  0  0  0  0  0  0  0  0  0  0  0
  1  2  1  0
  2  3  1  0
  3  4  1  0
  4  5  2  0
  5  6  1  0
  5  7  1  0
  7  8  2  0
  8  9  1  0
  8 10  1  0
 10 11  2  0
 11 12  1  0
 12 13  1  0
 13 14  1  0
 14 15  2  0
 15 16  1  0
 16 17  1  0
 16 18  2  0
 18 19  1  0
 18 20  1  0
 20 21  1  0
 20 22  2  0
 13  2  1  0
 22 14  1  0
 11  4  1  0
  1 23  1  0
  2 24  1  6
  3 25  1  0
  3 26  1  0
  6 27  1  0
  7 28  1  0
  9 29  1  0
 10 30  1  0
 13 31  1  6
 15 32  1  0
 17 33  1  0
 19 34  1  0
 21 35  1  0
 22 36  1  0
M  END
>  <LIG_ID>  (84) 
83

>  <_smiles>  (84) 
O[C@H]1CC2=C(O)C=C(O)C=C2O[C@@H]1C1=CC(O)=C(O)C(O)=C1

>  <_name>  (84) 
(+)-Gallocatechin

>  <_molecular_weight>  (84) 
306.267

>  <_formula>  (84) 
C15H14O7

>  <_logP>  (84) 
1.2516999999999994

>  <_molecular_wt_calculated>  (84) 
306.26999999999975

>  <_havy_atom_count>  (84) 
22

>  <_hydrogen_acceptors>  (84) 
7

>  <_hydrogen_donors>  (84) 
6

>  <_rotatable_bonds>  (84) 
7

>  <_amide_bonds>  (84) 
0

>  <_ring_count>  (84) 
3

$$$$
(-)-Epigallocatechin
     RDKit          3D

 36 38  0  0  0  0  0  0  0  0999 V2000
   -0.0754    0.9288   -1.9063 O   0  0  0  0  0  0  0  0  0  0  0  0
    0.1769    1.5021   -0.6450 C   0  0  2  0  0  0  0  0  0  0  0  0
    1.6782    1.8063   -0.4683 C   0  0  0  0  0  0  0  0  0  0  0  0
    2.4885    0.5672   -0.1573 C   0  0  0  0  0  0  0  0  0  0  0  0
    3.8830    0.5576   -0.3485 C   0  0  0  0  0  0  0  0  0  0  0  0
    4.5296    1.6883   -0.8474 O   0  0  0  0  0  0  0  0  0  0  0  0
    4.6229   -0.5920   -0.0359 C   0  0  0  0  0  0  0  0  0  0  0  0
    3.9866   -1.7264    0.4757 C   0  0  0  0  0  0  0  0  0  0  0  0
    4.7391   -2.8597    0.7758 O   0  0  0  0  0  0  0  0  0  0  0  0
    2.6023   -1.7136    0.6845 C   0  0  0  0  0  0  0  0  0  0  0  0
    1.8550   -0.5714    0.3836 C   0  0  0  0  0  0  0  0  0  0  0  0
    0.4724   -0.5816    0.5991 O   0  0  0  0  0  0  0  0  0  0  0  0
   -0.3228    0.6018    0.5061 C   0  0  2  0  0  0  0  0  0  0  0  0
   -1.7837    0.2500    0.3405 C   0  0  0  0  0  0  0  0  0  0  0  0
   -2.7694    1.0785    0.8997 C   0  0  0  0  0  0  0  0  0  0  0  0
   -4.1287    0.7854    0.7256 C   0  0  0  0  0  0  0  0  0  0  0  0
   -5.1035    1.6062    1.2902 O   0  0  0  0  0  0  0  0  0  0  0  0
   -4.5143   -0.3355   -0.0207 C   0  0  0  0  0  0  0  0  0  0  0  0
   -5.8723   -0.6126   -0.1816 O   0  0  0  0  0  0  0  0  0  0  0  0
   -3.5355   -1.1616   -0.5986 C   0  0  0  0  0  0  0  0  0  0  0  0
   -3.9152   -2.2735   -1.3491 O   0  0  0  0  0  0  0  0  0  0  0  0
   -2.1774   -0.8638   -0.4210 C   0  0  0  0  0  0  0  0  0  0  0  0
    0.4269    0.0750   -1.9627 H   0  0  0  0  0  0  0  0  0  0  0  0
   -0.3736    2.4673   -0.5996 H   0  0  0  0  0  0  0  0  0  0  0  0
    2.0563    2.2922   -1.3940 H   0  0  0  0  0  0  0  0  0  0  0  0
    1.8072    2.5252    0.3697 H   0  0  0  0  0  0  0  0  0  0  0  0
    5.5322    1.7057   -0.9936 H   0  0  0  0  0  0  0  0  0  0  0  0
    5.6949   -0.6039   -0.1888 H   0  0  0  0  0  0  0  0  0  0  0  0
    4.3086   -3.6979    1.1487 H   0  0  0  0  0  0  0  0  0  0  0  0
    2.1060   -2.5887    1.0849 H   0  0  0  0  0  0  0  0  0  0  0  0
   -0.1944    1.1617    1.4599 H   0  0  0  0  0  0  0  0  0  0  0  0
   -2.4819    1.9534    1.4700 H   0  0  0  0  0  0  0  0  0  0  0  0
   -4.8576    2.4247    1.8348 H   0  0  0  0  0  0  0  0  0  0  0  0
   -6.2003   -1.4104   -0.7126 H   0  0  0  0  0  0  0  0  0  0  0  0
   -3.2295   -2.8847   -1.7771 H   0  0  0  0  0  0  0  0  0  0  0  0
   -1.4310   -1.5003   -0.8800 H   0  0  0  0  0  0  0  0  0  0  0  0
  1  2  1  0
  2  3  1  0
  3  4  1  0
  4  5  2  0
  5  6  1  0
  5  7  1  0
  7  8  2  0
  8  9  1  0
  8 10  1  0
 10 11  2  0
 11 12  1  0
 12 13  1  0
 13 14  1  0
 14 15  2  0
 15 16  1  0
 16 17  1  0
 16 18  2  0
 18 19  1  0
 18 20  1  0
 20 21  1  0
 20 22  2  0
 13  2  1  0
 22 14  1  0
 11  4  1  0
  1 23  1  0
  2 24  1  6
  3 25  1  0
  3 26  1  0
  6 27  1  0
  7 28  1  0
  9 29  1  0
 10 30  1  0
 13 31  1  1
 15 32  1  0
 17 33  1  0
 19 34  1  0
 21 35  1  0
 22 36  1  0
M  END
>  <LIG_ID>  (85) 
84

>  <_smiles>  (85) 
O[C@@H]1CC2=C(O)C=C(O)C=C2O[C@@H]1C1=CC(O)=C(O)C(O)=C1

>  <_name>  (85) 
(-)-Epigallocatechin

>  <_molecular_weight>  (85) 
306.267

>  <_formula>  (85) 
C15H14O7

>  <_logP>  (85) 
1.2516999999999994

>  <_molecular_wt_calculated>  (85) 
306.26999999999975

>  <_havy_atom_count>  (85) 
22

>  <_hydrogen_acceptors>  (85) 
7

>  <_hydrogen_donors>  (85) 
6

>  <_rotatable_bonds>  (85) 
7

>  <_amide_bonds>  (85) 
0

>  <_ring_count>  (85) 
3

$$$$
(-)-Epicatechin 3-O-gallate
     RDKit          3D

 50 53  0  0  0  0  0  0  0  0999 V2000
   -2.4190    4.9405    2.4126 O   0  0  0  0  0  0  0  0  0  0  0  0
   -2.1168    4.1317    1.3194 C   0  0  0  0  0  0  0  0  0  0  0  0
   -1.5578    4.6807    0.1580 C   0  0  0  0  0  0  0  0  0  0  0  0
   -1.2524    3.8607   -0.9379 C   0  0  0  0  0  0  0  0  0  0  0  0
   -0.7079    4.4170   -2.0952 O   0  0  0  0  0  0  0  0  0  0  0  0
   -1.4972    2.4766   -0.8657 C   0  0  0  0  0  0  0  0  0  0  0  0
   -1.2007    1.5744   -2.0401 C   0  0  0  0  0  0  0  0  0  0  0  0
   -1.0307    0.1056   -1.6061 C   0  0  1  0  0  0  0  0  0  0  0  0
    0.1699   -0.0449   -0.8449 O   0  0  0  0  0  0  0  0  0  0  0  0
    1.4504   -0.0845   -1.4091 C   0  0  0  0  0  0  0  0  0  0  0  0
    1.5940   -0.0188   -2.6612 O   0  0  0  0  0  0  0  0  0  0  0  0
    2.6325   -0.2149   -0.5300 C   0  0  0  0  0  0  0  0  0  0  0  0
    3.9294   -0.2509   -1.0706 C   0  0  0  0  0  0  0  0  0  0  0  0
    5.0466   -0.3755   -0.2335 C   0  0  0  0  0  0  0  0  0  0  0  0
    6.3309   -0.4106   -0.7744 O   0  0  0  0  0  0  0  0  0  0  0  0
    4.8773   -0.4655    1.1537 C   0  0  0  0  0  0  0  0  0  0  0  0
    6.0015   -0.5891    1.9708 O   0  0  0  0  0  0  0  0  0  0  0  0
    3.5852   -0.4305    1.7040 C   0  0  0  0  0  0  0  0  0  0  0  0
    3.4123   -0.5201    3.0845 O   0  0  0  0  0  0  0  0  0  0  0  0
    2.4709   -0.3057    0.8627 C   0  0  0  0  0  0  0  0  0  0  0  0
   -2.2404   -0.3165   -0.7421 C   0  0  2  0  0  0  0  0  0  0  0  0
   -2.3490    0.5634    0.3812 O   0  0  0  0  0  0  0  0  0  0  0  0
   -2.0825    1.9346    0.2955 C   0  0  0  0  0  0  0  0  0  0  0  0
   -2.3776    2.7604    1.3838 C   0  0  0  0  0  0  0  0  0  0  0  0
   -2.2211   -1.7562   -0.2460 C   0  0  0  0  0  0  0  0  0  0  0  0
   -3.2030   -2.1538    0.6799 C   0  0  0  0  0  0  0  0  0  0  0  0
   -3.2493   -3.4661    1.1556 C   0  0  0  0  0  0  0  0  0  0  0  0
   -2.3230   -4.4125    0.7045 C   0  0  0  0  0  0  0  0  0  0  0  0
   -2.3634   -5.7224    1.1789 O   0  0  0  0  0  0  0  0  0  0  0  0
   -1.3519   -4.0427   -0.2322 C   0  0  0  0  0  0  0  0  0  0  0  0
   -0.4355   -4.9906   -0.6849 O   0  0  0  0  0  0  0  0  0  0  0  0
   -1.3056   -2.7255   -0.7121 C   0  0  0  0  0  0  0  0  0  0  0  0
   -2.2431    5.9384    2.3980 H   0  0  0  0  0  0  0  0  0  0  0  0
   -1.3631    5.7446    0.1059 H   0  0  0  0  0  0  0  0  0  0  0  0
   -0.5227    5.4104   -2.1705 H   0  0  0  0  0  0  0  0  0  0  0  0
   -0.2793    1.9109   -2.5612 H   0  0  0  0  0  0  0  0  0  0  0  0
   -2.0419    1.6486   -2.7629 H   0  0  0  0  0  0  0  0  0  0  0  0
   -0.9919   -0.5274   -2.5204 H   0  0  0  0  0  0  0  0  0  0  0  0
    4.0784   -0.1825   -2.1412 H   0  0  0  0  0  0  0  0  0  0  0  0
    6.4880   -0.3478   -1.7735 H   0  0  0  0  0  0  0  0  0  0  0  0
    5.9301   -0.6574    2.9789 H   0  0  0  0  0  0  0  0  0  0  0  0
    2.4916   -0.4975    3.5073 H   0  0  0  0  0  0  0  0  0  0  0  0
    1.4810   -0.2807    1.3016 H   0  0  0  0  0  0  0  0  0  0  0  0
   -3.1566   -0.1984   -1.3625 H   0  0  0  0  0  0  0  0  0  0  0  0
   -2.8139    2.3357    2.2793 H   0  0  0  0  0  0  0  0  0  0  0  0
   -3.9382   -1.4429    1.0371 H   0  0  0  0  0  0  0  0  0  0  0  0
   -4.0090   -3.7470    1.8739 H   0  0  0  0  0  0  0  0  0  0  0  0
   -3.0558   -6.0196    1.8566 H   0  0  0  0  0  0  0  0  0  0  0  0
    0.2809   -4.7556   -1.3619 H   0  0  0  0  0  0  0  0  0  0  0  0
   -0.5505   -2.4803   -1.4438 H   0  0  0  0  0  0  0  0  0  0  0  0
  1  2  1  0
  2  3  2  0
  3  4  1  0
  4  5  1  0
  4  6  2  0
  6  7  1  0
  7  8  1  0
  8  9  1  0
  9 10  1  0
 10 11  2  0
 10 12  1  0
 12 13  2  0
 13 14  1  0
 14 15  1  0
 14 16  2  0
 16 17  1  0
 16 18  1  0
 18 19  1  0
 18 20  2  0
  8 21  1  0
 21 22  1  0
 22 23  1  0
 23 24  2  0
 21 25  1  0
 25 26  2  0
 26 27  1  0
 27 28  2  0
 28 29  1  0
 28 30  1  0
 30 31  1  0
 30 32  2  0
 24  2  1  0
 32 25  1  0
 23  6  1  0
 20 12  1  0
  1 33  1  0
  3 34  1  0
  5 35  1  0
  7 36  1  0
  7 37  1  0
  8 38  1  6
 13 39  1  0
 15 40  1  0
 17 41  1  0
 19 42  1  0
 20 43  1  0
 21 44  1  6
 24 45  1  0
 26 46  1  0
 27 47  1  0
 29 48  1  0
 31 49  1  0
 32 50  1  0
M  END
>  <LIG_ID>  (86) 
85

>  <_smiles>  (86) 
OC1=CC(O)=C2C[C@@H](OC(=O)C3=CC(O)=C(O)C(O)=C3)[C@H](OC2=C1)C1=CC=C(O)C(O)=C1

>  <_name>  (86) 
(-)-Epicatechin 3-O-gallate

>  <_molecular_weight>  (86) 
442.372

>  <_formula>  (86) 
C22H18O10

>  <_logP>  (86) 
2.5276000000000005

>  <_molecular_wt_calculated>  (86) 
442.3759999999999

>  <_havy_atom_count>  (86) 
32

>  <_hydrogen_acceptors>  (86) 
10

>  <_hydrogen_donors>  (86) 
7

>  <_rotatable_bonds>  (86) 
10

>  <_amide_bonds>  (86) 
0

>  <_ring_count>  (86) 
4

$$$$
(-)-Epigallocatechin 3-O-gallate
     RDKit          3D

 51 54  0  0  0  0  0  0  0  0999 V2000
   -5.9447    3.9279    0.0046 O   0  0  0  0  0  0  0  0  0  0  0  0
   -4.6133    3.5219    0.0607 C   0  0  0  0  0  0  0  0  0  0  0  0
   -3.6780    4.2439    0.8130 C   0  0  0  0  0  0  0  0  0  0  0  0
   -2.3381    3.8329    0.8619 C   0  0  0  0  0  0  0  0  0  0  0  0
   -1.4152    4.5521    1.6211 O   0  0  0  0  0  0  0  0  0  0  0  0
   -1.9276    2.6942    0.1439 C   0  0  0  0  0  0  0  0  0  0  0  0
   -0.4898    2.2306    0.1974 C   0  0  0  0  0  0  0  0  0  0  0  0
   -0.1549    1.2676   -0.9557 C   0  0  1  0  0  0  0  0  0  0  0  0
    1.1541    0.7238   -0.7875 O   0  0  0  0  0  0  0  0  0  0  0  0
    1.8609    0.0647   -1.8007 C   0  0  0  0  0  0  0  0  0  0  0  0
    1.4131    0.0510   -2.9805 O   0  0  0  0  0  0  0  0  0  0  0  0
    3.1362   -0.6138   -1.4813 C   0  0  0  0  0  0  0  0  0  0  0  0
    3.8823   -1.2503   -2.4866 C   0  0  0  0  0  0  0  0  0  0  0  0
    5.0856   -1.9009   -2.1889 C   0  0  0  0  0  0  0  0  0  0  0  0
    5.7724   -2.5103   -3.2411 O   0  0  0  0  0  0  0  0  0  0  0  0
    5.5580   -1.9200   -0.8551 C   0  0  0  0  0  0  0  0  0  0  0  0
    6.7496   -2.5514   -0.4898 O   0  0  0  0  0  0  0  0  0  0  0  0
    4.8139   -1.2864    0.1498 C   0  0  0  0  0  0  0  0  0  0  0  0
    5.2777   -1.3065    1.4645 O   0  0  0  0  0  0  0  0  0  0  0  0
    3.6126   -0.6379   -0.1620 C   0  0  0  0  0  0  0  0  0  0  0  0
   -1.2385    0.1659   -1.0934 C   0  0  2  0  0  0  0  0  0  0  0  0
   -2.5019    0.8058   -1.2921 O   0  0  0  0  0  0  0  0  0  0  0  0
   -2.8801    1.9565   -0.5898 C   0  0  0  0  0  0  0  0  0  0  0  0
   -4.2108    2.3813   -0.6387 C   0  0  0  0  0  0  0  0  0  0  0  0
   -1.3719   -0.8548    0.0385 C   0  0  0  0  0  0  0  0  0  0  0  0
   -0.4214   -1.0285    1.0672 C   0  0  0  0  0  0  0  0  0  0  0  0
   -0.5923   -2.0121    2.0470 C   0  0  0  0  0  0  0  0  0  0  0  0
    0.3684   -2.1372    3.0507 O   0  0  0  0  0  0  0  0  0  0  0  0
   -1.7133   -2.8553    2.0106 C   0  0  0  0  0  0  0  0  0  0  0  0
   -1.8759   -3.8306    2.9955 O   0  0  0  0  0  0  0  0  0  0  0  0
   -2.6563   -2.7114    0.9823 C   0  0  0  0  0  0  0  0  0  0  0  0
   -3.7679   -3.5516    0.9325 O   0  0  0  0  0  0  0  0  0  0  0  0
   -2.4777   -1.7250    0.0041 C   0  0  0  0  0  0  0  0  0  0  0  0
   -6.2693    4.7496    0.5009 H   0  0  0  0  0  0  0  0  0  0  0  0
   -3.9922    5.1236    1.3606 H   0  0  0  0  0  0  0  0  0  0  0  0
   -1.6861    5.3750    2.1468 H   0  0  0  0  0  0  0  0  0  0  0  0
    0.1899    3.1076    0.1268 H   0  0  0  0  0  0  0  0  0  0  0  0
   -0.3123    1.7489    1.1800 H   0  0  0  0  0  0  0  0  0  0  0  0
   -0.1636    1.8717   -1.8920 H   0  0  0  0  0  0  0  0  0  0  0  0
    3.5329   -1.2454   -3.5119 H   0  0  0  0  0  0  0  0  0  0  0  0
    6.6466   -3.0044   -3.1355 H   0  0  0  0  0  0  0  0  0  0  0  0
    7.3558   -3.0346   -1.1367 H   0  0  0  0  0  0  0  0  0  0  0  0
    4.7647   -0.8599    2.2157 H   0  0  0  0  0  0  0  0  0  0  0  0
    3.0541   -0.1566    0.6312 H   0  0  0  0  0  0  0  0  0  0  0  0
   -1.0149   -0.4135   -2.0141 H   0  0  0  0  0  0  0  0  0  0  0  0
   -4.9346    1.8186   -1.2149 H   0  0  0  0  0  0  0  0  0  0  0  0
    0.4597   -0.4155    1.1412 H   0  0  0  0  0  0  0  0  0  0  0  0
    0.2957   -2.8324    3.7837 H   0  0  0  0  0  0  0  0  0  0  0  0
   -2.6694   -4.4602    3.0063 H   0  0  0  0  0  0  0  0  0  0  0  0
   -4.4639   -3.4696    0.2005 H   0  0  0  0  0  0  0  0  0  0  0  0
   -3.2083   -1.6387   -0.7912 H   0  0  0  0  0  0  0  0  0  0  0  0
  1  2  1  0
  2  3  2  0
  3  4  1  0
  4  5  1  0
  4  6  2  0
  6  7  1  0
  7  8  1  0
  8  9  1  0
  9 10  1  0
 10 11  2  0
 10 12  1  0
 12 13  2  0
 13 14  1  0
 14 15  1  0
 14 16  2  0
 16 17  1  0
 16 18  1  0
 18 19  1  0
 18 20  2  0
  8 21  1  0
 21 22  1  0
 22 23  1  0
 23 24  2  0
 21 25  1  0
 25 26  2  0
 26 27  1  0
 27 28  1  0
 27 29  2  0
 29 30  1  0
 29 31  1  0
 31 32  1  0
 31 33  2  0
 24  2  1  0
 33 25  1  0
 23  6  1  0
 20 12  1  0
  1 34  1  0
  3 35  1  0
  5 36  1  0
  7 37  1  0
  7 38  1  0
  8 39  1  6
 13 40  1  0
 15 41  1  0
 17 42  1  0
 19 43  1  0
 20 44  1  0
 21 45  1  6
 24 46  1  0
 26 47  1  0
 28 48  1  0
 30 49  1  0
 32 50  1  0
 33 51  1  0
M  END
>  <LIG_ID>  (87) 
86

>  <_smiles>  (87) 
OC1=CC(O)=C2C[C@@H](OC(=O)C3=CC(O)=C(O)C(O)=C3)[C@H](OC2=C1)C1=CC(O)=C(O)C(O)=C1

>  <_name>  (87) 
(-)-Epigallocatechin 3-O-gallate

>  <_molecular_weight>  (87) 
458.372

>  <_formula>  (87) 
C22H18O11

>  <_logP>  (87) 
2.2332

>  <_molecular_wt_calculated>  (87) 
458.37499999999994

>  <_havy_atom_count>  (87) 
33

>  <_hydrogen_acceptors>  (87) 
11

>  <_hydrogen_donors>  (87) 
8

>  <_rotatable_bonds>  (87) 
11

>  <_amide_bonds>  (87) 
0

>  <_ring_count>  (87) 
4

$$$$
Theaflavin
     RDKit          3D

 65 70  0  0  0  0  0  0  0  0999 V2000
   -1.9714   -0.4110    0.6692 C   0  0  1  0  0  0  0  0  0  0  0  0
   -3.1602   -0.5385    1.4621 O   0  0  0  0  0  0  0  0  0  0  0  0
   -4.2428   -1.3615    1.1193 C   0  0  0  0  0  0  0  0  0  0  0  0
   -5.3708   -1.3836    1.9446 C   0  0  0  0  0  0  0  0  0  0  0  0
   -6.4730   -2.1806    1.6127 C   0  0  0  0  0  0  0  0  0  0  0  0
   -7.6010   -2.2077    2.4297 O   0  0  0  0  0  0  0  0  0  0  0  0
   -6.4460   -2.9539    0.4486 C   0  0  0  0  0  0  0  0  0  0  0  0
   -5.3198   -2.9408   -0.3867 C   0  0  0  0  0  0  0  0  0  0  0  0
   -5.3104   -3.7013   -1.5558 O   0  0  0  0  0  0  0  0  0  0  0  0
   -4.2021   -2.1571   -0.0426 C   0  0  0  0  0  0  0  0  0  0  0  0
   -2.9941   -2.0949   -0.9430 C   0  0  0  0  0  0  0  0  0  0  0  0
   -1.7359   -1.7010   -0.1584 C   0  0  1  0  0  0  0  0  0  0  0  0
   -0.6623   -1.5470   -1.0499 O   0  0  0  0  0  0  0  0  0  0  0  0
   -2.0103    0.8564   -0.2114 C   0  0  0  0  0  0  0  0  0  0  0  0
   -3.2637    1.2707   -0.6895 C   0  0  0  0  0  0  0  0  0  0  0  0
   -3.3844    2.2579   -1.6537 C   0  0  0  0  0  0  0  0  0  0  0  0
   -4.6474    2.6150   -2.1274 O   0  0  0  0  0  0  0  0  0  0  0  0
   -2.2461    2.8758   -2.1684 C   0  0  0  0  0  0  0  0  0  0  0  0
   -2.3890    3.7809   -3.2265 O   0  0  0  0  0  0  0  0  0  0  0  0
   -0.9561    2.5567   -1.6679 C   0  0  0  0  0  0  0  0  0  0  0  0
    0.1323    3.3227   -2.1491 C   0  0  0  0  0  0  0  0  0  0  0  0
   -0.0454    4.6860   -2.4152 O   0  0  0  0  0  0  0  0  0  0  0  0
    1.3719    2.7885   -2.5022 C   0  0  0  0  0  0  0  0  0  0  0  0
    2.0692    3.4372   -3.3298 O   0  0  0  0  0  0  0  0  0  0  0  0
    1.9164    1.6077   -2.0114 C   0  0  0  0  0  0  0  0  0  0  0  0
    1.6429    1.0557   -0.7558 C   0  0  0  0  0  0  0  0  0  0  0  0
    0.4134    1.2129   -0.0927 C   0  0  0  0  0  0  0  0  0  0  0  0
   -0.8257    1.5218   -0.6898 C   0  0  0  0  0  0  0  0  0  0  0  0
    2.7508    0.1668   -0.1749 C   0  0  1  0  0  0  0  0  0  0  0  0
    4.0072    0.8451   -0.2792 O   0  0  0  0  0  0  0  0  0  0  0  0
    5.1627    0.3915    0.3670 C   0  0  0  0  0  0  0  0  0  0  0  0
    6.3953    0.9741    0.0592 C   0  0  0  0  0  0  0  0  0  0  0  0
    7.5624    0.5308    0.6933 C   0  0  0  0  0  0  0  0  0  0  0  0
    8.7958    1.1031    0.3904 O   0  0  0  0  0  0  0  0  0  0  0  0
    7.4928   -0.4980    1.6375 C   0  0  0  0  0  0  0  0  0  0  0  0
    6.2603   -1.0845    1.9597 C   0  0  0  0  0  0  0  0  0  0  0  0
    6.2026   -2.1183    2.8942 O   0  0  0  0  0  0  0  0  0  0  0  0
    5.0837   -0.6270    1.3375 C   0  0  0  0  0  0  0  0  0  0  0  0
    3.7463   -1.2565    1.6518 C   0  0  0  0  0  0  0  0  0  0  0  0
    2.5713   -0.3315    1.2801 C   0  0  1  0  0  0  0  0  0  0  0  0
    2.5389    0.7658    2.1586 O   0  0  0  0  0  0  0  0  0  0  0  0
   -1.1603   -0.3544    1.4124 H   0  0  0  0  0  0  0  0  0  0  0  0
   -5.3915   -0.7752    2.8400 H   0  0  0  0  0  0  0  0  0  0  0  0
   -7.6528   -1.6578    3.2793 H   0  0  0  0  0  0  0  0  0  0  0  0
   -7.3042   -3.5618    0.1909 H   0  0  0  0  0  0  0  0  0  0  0  0
   -6.1033   -4.2721   -1.8245 H   0  0  0  0  0  0  0  0  0  0  0  0
   -3.1849   -1.3617   -1.7557 H   0  0  0  0  0  0  0  0  0  0  0  0
   -2.8163   -3.0868   -1.4126 H   0  0  0  0  0  0  0  0  0  0  0  0
   -1.5141   -2.5349    0.5508 H   0  0  0  0  0  0  0  0  0  0  0  0
    0.1683   -1.6821   -0.5242 H   0  0  0  0  0  0  0  0  0  0  0  0
   -4.1722    0.7960   -0.3521 H   0  0  0  0  0  0  0  0  0  0  0  0
   -5.4925    2.1773   -1.7788 H   0  0  0  0  0  0  0  0  0  0  0  0
   -3.2883    4.0217   -3.6256 H   0  0  0  0  0  0  0  0  0  0  0  0
   -0.8234    5.2173   -2.0421 H   0  0  0  0  0  0  0  0  0  0  0  0
    2.8314    1.2830   -2.4977 H   0  0  0  0  0  0  0  0  0  0  0  0
    0.3823    0.8852    0.9231 H   0  0  0  0  0  0  0  0  0  0  0  0
    2.7981   -0.7371   -0.8235 H   0  0  0  0  0  0  0  0  0  0  0  0
    6.4449    1.7665   -0.6771 H   0  0  0  0  0  0  0  0  0  0  0  0
    8.8805    1.8496   -0.2897 H   0  0  0  0  0  0  0  0  0  0  0  0
    8.3989   -0.8430    2.1197 H   0  0  0  0  0  0  0  0  0  0  0  0
    7.0359   -2.4645    3.3551 H   0  0  0  0  0  0  0  0  0  0  0  0
    3.6609   -2.2069    1.0815 H   0  0  0  0  0  0  0  0  0  0  0  0
    3.6817   -1.5040    2.7338 H   0  0  0  0  0  0  0  0  0  0  0  0
    1.6318   -0.9262    1.3595 H   0  0  0  0  0  0  0  0  0  0  0  0
    2.1307    0.4432    3.0042 H   0  0  0  0  0  0  0  0  0  0  0  0
  1  2  1  0
  2  3  1  0
  3  4  2  0
  4  5  1  0
  5  6  1  0
  5  7  2  0
  7  8  1  0
  8  9  1  0
  8 10  2  0
 10 11  1  0
 11 12  1  0
 12 13  1  0
  1 14  1  0
 14 15  2  0
 15 16  1  0
 16 17  1  0
 16 18  2  0
 18 19  1  0
 18 20  1  0
 20 21  2  0
 21 22  1  0
 21 23  1  0
 23 24  2  0
 23 25  1  0
 25 26  2  0
 26 27  1  0
 27 28  2  0
 26 29  1  0
 29 30  1  0
 30 31  1  0
 31 32  2  0
 32 33  1  0
 33 34  1  0
 33 35  2  0
 35 36  1  0
 36 37  1  0
 36 38  2  0
 38 39  1  0
 39 40  1  0
 40 41  1  0
 12  1  1  0
 28 14  1  0
 40 29  1  0
 10  3  1  0
 28 20  1  0
 38 31  1  0
  1 42  1  1
  4 43  1  0
  6 44  1  0
  7 45  1  0
  9 46  1  0
 11 47  1  0
 11 48  1  0
 12 49  1  1
 13 50  1  0
 15 51  1  0
 17 52  1  0
 19 53  1  0
 22 54  1  0
 25 55  1  0
 27 56  1  0
 29 57  1  6
 32 58  1  0
 34 59  1  0
 35 60  1  0
 37 61  1  0
 39 62  1  0
 39 63  1  0
 40 64  1  6
 41 65  1  0
M  END
>  <LIG_ID>  (88) 
87

>  <_smiles>  (88) 
[H][C@@]1(OC2=CC(O)=CC(O)=C2C[C@H]1O)C1=CC(O)=C(O)C2=C(O)C(=O)C=C(C=C12)[C@H]1OC2=CC(O)=CC(O)=C2C[C@H]1O

>  <_name>  (88) 
Theaflavin

>  <_molecular_weight>  (88) 
564.494

>  <_formula>  (88) 
C29H24O12

>  <_logP>  (88) 
2.2134000000000005

>  <_molecular_wt_calculated>  (88) 
564.4990000000013

>  <_havy_atom_count>  (88) 
41

>  <_hydrogen_acceptors>  (88) 
12

>  <_hydrogen_donors>  (88) 
9

>  <_rotatable_bonds>  (88) 
11

>  <_amide_bonds>  (88) 
0

>  <_ring_count>  (88) 
6

$$$$
Theaflavin 3-O-gallate
     RDKit          3D

 80 86  0  0  0  0  0  0  0  0999 V2000
   -1.1444   -1.5614   -0.6936 C   0  0  1  0  0  0  0  0  0  0  0  0
   -0.9066   -0.4861    0.2186 O   0  0  0  0  0  0  0  0  0  0  0  0
   -1.7348   -0.2610    1.3267 C   0  0  0  0  0  0  0  0  0  0  0  0
   -1.3445    0.6664    2.2963 C   0  0  0  0  0  0  0  0  0  0  0  0
   -2.1376    0.8856    3.4234 C   0  0  0  0  0  0  0  0  0  0  0  0
   -1.7295    1.8120    4.3805 O   0  0  0  0  0  0  0  0  0  0  0  0
   -3.3291    0.1696    3.5857 C   0  0  0  0  0  0  0  0  0  0  0  0
   -3.7425   -0.7556    2.6204 C   0  0  0  0  0  0  0  0  0  0  0  0
   -4.9218   -1.4666    2.8537 O   0  0  0  0  0  0  0  0  0  0  0  0
   -2.9625   -0.9498    1.4560 C   0  0  0  0  0  0  0  0  0  0  0  0
   -3.3959   -1.9043    0.3607 C   0  0  0  0  0  0  0  0  0  0  0  0
   -2.6641   -1.6289   -0.9690 C   0  0  1  0  0  0  0  0  0  0  0  0
   -3.1076   -0.3782   -1.5036 O   0  0  0  0  0  0  0  0  0  0  0  0
   -4.3288   -0.2017   -2.1650 C   0  0  0  0  0  0  0  0  0  0  0  0
   -5.0972   -1.1854   -2.3514 O   0  0  0  0  0  0  0  0  0  0  0  0
   -4.7067    1.1418   -2.6545 C   0  0  0  0  0  0  0  0  0  0  0  0
   -5.9270    1.3479   -3.3173 C   0  0  0  0  0  0  0  0  0  0  0  0
   -6.2888    2.6170   -3.7835 C   0  0  0  0  0  0  0  0  0  0  0  0
   -7.5189    2.7423   -4.4331 O   0  0  0  0  0  0  0  0  0  0  0  0
   -5.4130    3.7115   -3.5854 C   0  0  0  0  0  0  0  0  0  0  0  0
   -5.7194    5.0010   -4.0283 O   0  0  0  0  0  0  0  0  0  0  0  0
   -4.1901    3.5049   -2.9213 C   0  0  0  0  0  0  0  0  0  0  0  0
   -3.3002    4.5578   -2.7070 O   0  0  0  0  0  0  0  0  0  0  0  0
   -3.8445    2.2310   -2.4621 C   0  0  0  0  0  0  0  0  0  0  0  0
   -0.2043   -1.4366   -1.9091 C   0  0  0  0  0  0  0  0  0  0  0  0
   -0.7564   -1.2503   -3.1902 C   0  0  0  0  0  0  0  0  0  0  0  0
    0.0426   -1.0671   -4.3062 C   0  0  0  0  0  0  0  0  0  0  0  0
   -0.5425   -0.8099   -5.5467 O   0  0  0  0  0  0  0  0  0  0  0  0
    1.4273   -1.1469   -4.1928 C   0  0  0  0  0  0  0  0  0  0  0  0
    2.2176   -0.8944   -5.3207 O   0  0  0  0  0  0  0  0  0  0  0  0
    2.0397   -1.4460   -2.9493 C   0  0  0  0  0  0  0  0  0  0  0  0
    3.4081   -1.8041   -2.9892 C   0  0  0  0  0  0  0  0  0  0  0  0
    3.8828   -2.5514   -4.0757 O   0  0  0  0  0  0  0  0  0  0  0  0
    4.3760   -1.3911   -2.0757 C   0  0  0  0  0  0  0  0  0  0  0  0
    5.5826   -1.4667   -2.4377 O   0  0  0  0  0  0  0  0  0  0  0  0
    4.1391   -0.8932   -0.8041 C   0  0  0  0  0  0  0  0  0  0  0  0
    3.0258   -1.1609   -0.0051 C   0  0  0  0  0  0  0  0  0  0  0  0
    1.7798   -1.6113   -0.4684 C   0  0  0  0  0  0  0  0  0  0  0  0
    1.2331   -1.4883   -1.7682 C   0  0  0  0  0  0  0  0  0  0  0  0
    3.1501   -0.8900    1.4909 C   0  0  1  0  0  0  0  0  0  0  0  0
    4.4492   -1.2345    1.9771 O   0  0  0  0  0  0  0  0  0  0  0  0
    4.9270   -0.7702    3.2081 C   0  0  0  0  0  0  0  0  0  0  0  0
    6.1084   -1.3053    3.7292 C   0  0  0  0  0  0  0  0  0  0  0  0
    6.6034   -0.8568    4.9597 C   0  0  0  0  0  0  0  0  0  0  0  0
    7.7782   -1.3875    5.4877 O   0  0  0  0  0  0  0  0  0  0  0  0
    5.9132    0.1304    5.6688 C   0  0  0  0  0  0  0  0  0  0  0  0
    4.7313    0.6812    5.1527 C   0  0  0  0  0  0  0  0  0  0  0  0
    4.0447    1.6582    5.8735 O   0  0  0  0  0  0  0  0  0  0  0  0
    4.2405    0.2460    3.9074 C   0  0  0  0  0  0  0  0  0  0  0  0
    2.9573    0.8187    3.3442 C   0  0  0  0  0  0  0  0  0  0  0  0
    2.8237    0.5812    1.8265 C   0  0  1  0  0  0  0  0  0  0  0  0
    3.6315    1.4785    1.1019 O   0  0  0  0  0  0  0  0  0  0  0  0
   -0.8927   -2.5226   -0.1924 H   0  0  0  0  0  0  0  0  0  0  0  0
   -0.4230    1.2184    2.1766 H   0  0  0  0  0  0  0  0  0  0  0  0
   -2.2806    1.9930    5.2114 H   0  0  0  0  0  0  0  0  0  0  0  0
   -3.9351    0.3265    4.4694 H   0  0  0  0  0  0  0  0  0  0  0  0
   -5.2529   -2.2066    2.2490 H   0  0  0  0  0  0  0  0  0  0  0  0
   -4.4874   -1.8127    0.1824 H   0  0  0  0  0  0  0  0  0  0  0  0
   -3.1882   -2.9452    0.6906 H   0  0  0  0  0  0  0  0  0  0  0  0
   -2.8785   -2.4576   -1.6806 H   0  0  0  0  0  0  0  0  0  0  0  0
   -6.6082    0.5208   -3.4768 H   0  0  0  0  0  0  0  0  0  0  0  0
   -7.8770    3.6088   -4.8075 H   0  0  0  0  0  0  0  0  0  0  0  0
   -6.5698    5.2477   -4.5132 H   0  0  0  0  0  0  0  0  0  0  0  0
   -3.4946    5.5025   -3.0164 H   0  0  0  0  0  0  0  0  0  0  0  0
   -2.8968    2.0990   -1.9542 H   0  0  0  0  0  0  0  0  0  0  0  0
   -1.8204   -1.2240   -3.3540 H   0  0  0  0  0  0  0  0  0  0  0  0
   -1.5475   -0.7449   -5.6611 H   0  0  0  0  0  0  0  0  0  0  0  0
    1.8246   -0.6652   -6.2257 H   0  0  0  0  0  0  0  0  0  0  0  0
    3.2670   -3.0436   -4.7126 H   0  0  0  0  0  0  0  0  0  0  0  0
    5.0075   -0.4750   -0.3063 H   0  0  0  0  0  0  0  0  0  0  0  0
    1.1111   -1.8825    0.3292 H   0  0  0  0  0  0  0  0  0  0  0  0
    2.4286   -1.5280    2.0499 H   0  0  0  0  0  0  0  0  0  0  0  0
    6.6371   -2.0735    3.1791 H   0  0  0  0  0  0  0  0  0  0  0  0
    8.3018   -2.1047    4.9995 H   0  0  0  0  0  0  0  0  0  0  0  0
    6.2960    0.4687    6.6235 H   0  0  0  0  0  0  0  0  0  0  0  0
    4.3778    1.9877    6.7720 H   0  0  0  0  0  0  0  0  0  0  0  0
    2.9025    1.9113    3.5420 H   0  0  0  0  0  0  0  0  0  0  0  0
    2.1015    0.3361    3.8645 H   0  0  0  0  0  0  0  0  0  0  0  0
    1.7705    0.7771    1.5382 H   0  0  0  0  0  0  0  0  0  0  0  0
    4.5723    1.3475    1.3881 H   0  0  0  0  0  0  0  0  0  0  0  0
  1  2  1  0
  2  3  1  0
  3  4  2  0
  4  5  1  0
  5  6  1  0
  5  7  2  0
  7  8  1  0
  8  9  1  0
  8 10  2  0
 10 11  1  0
 11 12  1  0
 12 13  1  0
 13 14  1  0
 14 15  2  0
 14 16  1  0
 16 17  2  0
 17 18  1  0
 18 19  1  0
 18 20  2  0
 20 21  1  0
 20 22  1  0
 22 23  1  0
 22 24  2  0
  1 25  1  0
 25 26  2  0
 26 27  1  0
 27 28  1  0
 27 29  2  0
 29 30  1  0
 29 31  1  0
 31 32  2  0
 32 33  1  0
 32 34  1  0
 34 35  2  0
 34 36  1  0
 36 37  2  0
 37 38  1  0
 38 39  2  0
 37 40  1  0
 40 41  1  0
 41 42  1  0
 42 43  2  0
 43 44  1  0
 44 45  1  0
 44 46  2  0
 46 47  1  0
 47 48  1  0
 47 49  2  0
 49 50  1  0
 50 51  1  0
 51 52  1  0
 12  1  1  0
 24 16  1  0
 39 25  1  0
 51 40  1  0
 10  3  1  0
 39 31  1  0
 49 42  1  0
  1 53  1  1
  4 54  1  0
  6 55  1  0
  7 56  1  0
  9 57  1  0
 11 58  1  0
 11 59  1  0
 12 60  1  6
 17 61  1  0
 19 62  1  0
 21 63  1  0
 23 64  1  0
 24 65  1  0
 26 66  1  0
 28 67  1  0
 30 68  1  0
 33 69  1  0
 36 70  1  0
 38 71  1  0
 40 72  1  1
 43 73  1  0
 45 74  1  0
 46 75  1  0
 48 76  1  0
 50 77  1  0
 50 78  1  0
 51 79  1  6
 52 80  1  0
M  END
>  <LIG_ID>  (89) 
88

>  <_smiles>  (89) 
[H][C@@]1(OC2=CC(O)=CC(O)=C2C[C@H]1OC(=O)C1=CC(O)=C(O)C(O)=C1)C1=CC(O)=C(O)C2=C(O)C(=O)C=C(C=C12)[C@H]1OC2=CC(O)=CC(O)=C2C[C@H]1O

>  <_name>  (89) 
Theaflavin 3-O-gallate

>  <_molecular_weight>  (89) 
716.598

>  <_formula>  (89) 
C36H28O16

>  <_logP>  (89) 
3.1949000000000036

>  <_molecular_wt_calculated>  (89) 
716.6040000000013

>  <_havy_atom_count>  (89) 
52

>  <_hydrogen_acceptors>  (89) 
16

>  <_hydrogen_donors>  (89) 
11

>  <_rotatable_bonds>  (89) 
15

>  <_amide_bonds>  (89) 
0

>  <_ring_count>  (89) 
7

$$$$
Theaflavin 3'-O-gallate
     RDKit          3D

 80 86  0  0  0  0  0  0  0  0999 V2000
    3.6861    2.0141    1.2782 O   0  0  0  0  0  0  0  0  0  0  0  0
    4.5549    0.9961    0.8408 C   0  0  2  0  0  0  0  0  0  0  0  0
    5.5087    1.5170   -0.2559 C   0  0  0  0  0  0  0  0  0  0  0  0
    4.8562    1.5989   -1.6228 C   0  0  0  0  0  0  0  0  0  0  0  0
    5.4339    2.3548   -2.6708 C   0  0  0  0  0  0  0  0  0  0  0  0
    6.6453    3.0331   -2.5190 O   0  0  0  0  0  0  0  0  0  0  0  0
    4.7889    2.4287   -3.9111 C   0  0  0  0  0  0  0  0  0  0  0  0
    3.5930    1.7373   -4.1360 C   0  0  0  0  0  0  0  0  0  0  0  0
    2.9498    1.8125   -5.3694 O   0  0  0  0  0  0  0  0  0  0  0  0
    3.0411    0.9580   -3.1186 C   0  0  0  0  0  0  0  0  0  0  0  0
    3.6719    0.8717   -1.8752 C   0  0  0  0  0  0  0  0  0  0  0  0
    3.1003    0.0722   -0.8818 O   0  0  0  0  0  0  0  0  0  0  0  0
    3.7800   -0.2378    0.3341 C   0  0  2  0  0  0  0  0  0  0  0  0
    2.8073   -0.7676    1.3798 C   0  0  0  0  0  0  0  0  0  0  0  0
    1.5135   -0.2404    1.4099 C   0  0  0  0  0  0  0  0  0  0  0  0
    0.3551   -0.9031    1.8599 C   0  0  0  0  0  0  0  0  0  0  0  0
    0.3191   -1.6422    3.0854 C   0  0  0  0  0  0  0  0  0  0  0  0
   -0.9299   -2.1710    3.5268 C   0  0  0  0  0  0  0  0  0  0  0  0
   -0.9615   -3.0418    4.6244 O   0  0  0  0  0  0  0  0  0  0  0  0
   -2.1162   -1.8635    2.8463 C   0  0  0  0  0  0  0  0  0  0  0  0
   -3.3753   -2.2382    3.3237 O   0  0  0  0  0  0  0  0  0  0  0  0
   -2.0679   -1.1616    1.6571 C   0  0  0  0  0  0  0  0  0  0  0  0
   -0.8563   -0.7256    1.1003 C   0  0  0  0  0  0  0  0  0  0  0  0
   -0.8279   -0.0742   -0.3050 C   0  0  1  0  0  0  0  0  0  0  0  0
    0.2204   -0.6716   -1.0709 O   0  0  0  0  0  0  0  0  0  0  0  0
    0.0369   -1.8477   -1.8058 C   0  0  0  0  0  0  0  0  0  0  0  0
   -1.2623   -2.3248   -2.0861 C   0  0  0  0  0  0  0  0  0  0  0  0
   -2.4681   -1.5427   -1.6082 C   0  0  0  0  0  0  0  0  0  0  0  0
   -2.1080   -0.1060   -1.1829 C   0  0  1  0  0  0  0  0  0  0  0  0
   -3.2214    0.5287   -0.5536 O   0  0  0  0  0  0  0  0  0  0  0  0
   -3.3199    1.9105   -0.3496 C   0  0  0  0  0  0  0  0  0  0  0  0
   -2.4720    2.6899   -0.8657 O   0  0  0  0  0  0  0  0  0  0  0  0
   -4.4248    2.4518    0.4717 C   0  0  0  0  0  0  0  0  0  0  0  0
   -5.3378    1.5833    1.0881 C   0  0  0  0  0  0  0  0  0  0  0  0
   -6.3808    2.0877    1.8747 C   0  0  0  0  0  0  0  0  0  0  0  0
   -7.2819    1.2160    2.4848 O   0  0  0  0  0  0  0  0  0  0  0  0
   -6.5267    3.4701    2.0555 C   0  0  0  0  0  0  0  0  0  0  0  0
   -7.5849    3.9199    2.8491 O   0  0  0  0  0  0  0  0  0  0  0  0
   -5.6104    4.3540    1.4378 C   0  0  0  0  0  0  0  0  0  0  0  0
   -5.6927    5.7416    1.5733 O   0  0  0  0  0  0  0  0  0  0  0  0
   -4.5714    3.8365    0.6552 C   0  0  0  0  0  0  0  0  0  0  0  0
   -1.4107   -3.5450   -2.7868 C   0  0  0  0  0  0  0  0  0  0  0  0
   -2.6633   -4.1083   -3.0399 O   0  0  0  0  0  0  0  0  0  0  0  0
   -0.2764   -4.2268   -3.2426 C   0  0  0  0  0  0  0  0  0  0  0  0
    1.0059   -3.7248   -2.9921 C   0  0  0  0  0  0  0  0  0  0  0  0
    2.1351   -4.4011   -3.4482 O   0  0  0  0  0  0  0  0  0  0  0  0
    1.1579   -2.5389   -2.2728 C   0  0  0  0  0  0  0  0  0  0  0  0
    1.4388   -1.8194    3.9447 C   0  0  0  0  0  0  0  0  0  0  0  0
    1.2249   -1.9355    5.1848 O   0  0  0  0  0  0  0  0  0  0  0  0
    2.7716   -1.9810    3.5485 C   0  0  0  0  0  0  0  0  0  0  0  0
    3.6460   -2.5072    4.5064 O   0  0  0  0  0  0  0  0  0  0  0  0
    3.3086   -1.6847    2.2994 C   0  0  0  0  0  0  0  0  0  0  0  0
    3.1755    2.3412    0.4927 H   0  0  0  0  0  0  0  0  0  0  0  0
    5.1740    0.6879    1.7117 H   0  0  0  0  0  0  0  0  0  0  0  0
    6.3857    0.8379   -0.3282 H   0  0  0  0  0  0  0  0  0  0  0  0
    5.8713    2.5191    0.0577 H   0  0  0  0  0  0  0  0  0  0  0  0
    7.2131    2.9762   -1.6839 H   0  0  0  0  0  0  0  0  0  0  0  0
    5.2268    3.0193   -4.7063 H   0  0  0  0  0  0  0  0  0  0  0  0
    3.3253    2.3675   -6.1296 H   0  0  0  0  0  0  0  0  0  0  0  0
    2.1223    0.4126   -3.2952 H   0  0  0  0  0  0  0  0  0  0  0  0
    4.5238   -1.0303    0.0905 H   0  0  0  0  0  0  0  0  0  0  0  0
    1.3722    0.6217    0.7769 H   0  0  0  0  0  0  0  0  0  0  0  0
   -1.7701   -3.5803    4.9011 H   0  0  0  0  0  0  0  0  0  0  0  0
   -3.5405   -2.6182    4.2451 H   0  0  0  0  0  0  0  0  0  0  0  0
   -3.0139   -0.9828    1.1819 H   0  0  0  0  0  0  0  0  0  0  0  0
   -0.5789    0.9974   -0.1612 H   0  0  0  0  0  0  0  0  0  0  0  0
   -2.9433   -2.1000   -0.7767 H   0  0  0  0  0  0  0  0  0  0  0  0
   -3.2111   -1.4683   -2.4312 H   0  0  0  0  0  0  0  0  0  0  0  0
   -1.8808    0.4513   -2.1211 H   0  0  0  0  0  0  0  0  0  0  0  0
   -5.2437    0.5115    0.9646 H   0  0  0  0  0  0  0  0  0  0  0  0
   -7.2054    0.2113    2.3766 H   0  0  0  0  0  0  0  0  0  0  0  0
   -7.7754    4.8928    3.0404 H   0  0  0  0  0  0  0  0  0  0  0  0
   -6.4011    6.2164    2.1137 H   0  0  0  0  0  0  0  0  0  0  0  0
   -3.8772    4.5256    0.1898 H   0  0  0  0  0  0  0  0  0  0  0  0
   -3.5290   -3.7113   -2.6988 H   0  0  0  0  0  0  0  0  0  0  0  0
   -0.3942   -5.1548   -3.7881 H   0  0  0  0  0  0  0  0  0  0  0  0
    2.0596   -5.2656   -3.9714 H   0  0  0  0  0  0  0  0  0  0  0  0
    2.1504   -2.1598   -2.0672 H   0  0  0  0  0  0  0  0  0  0  0  0
    4.6313   -2.6590    4.3223 H   0  0  0  0  0  0  0  0  0  0  0  0
    4.3304   -2.0116    2.1433 H   0  0  0  0  0  0  0  0  0  0  0  0
  1  2  1  0
  2  3  1  0
  3  4  1  0
  4  5  2  0
  5  6  1  0
  5  7  1  0
  7  8  2  0
  8  9  1  0
  8 10  1  0
 10 11  2  0
 11 12  1  0
 12 13  1  0
 13 14  1  0
 14 15  2  0
 15 16  1  0
 16 17  2  0
 17 18  1  0
 18 19  1  0
 18 20  2  0
 20 21  1  0
 20 22  1  0
 22 23  2  0
 23 24  1  0
 24 25  1  0
 25 26  1  0
 26 27  2  0
 27 28  1  0
 28 29  1  0
 29 30  1  0
 30 31  1  0
 31 32  2  0
 31 33  1  0
 33 34  2  0
 34 35  1  0
 35 36  1  0
 35 37  2  0
 37 38  1  0
 37 39  1  0
 39 40  1  0
 39 41  2  0
 27 42  1  0
 42 43  1  0
 42 44  2  0
 44 45  1  0
 45 46  1  0
 45 47  2  0
 17 48  1  0
 48 49  2  0
 48 50  1  0
 50 51  1  0
 50 52  2  0
 13  2  1  0
 52 14  1  0
 11  4  1  0
 23 16  1  0
 29 24  1  0
 41 33  1  0
 47 26  1  0
  1 53  1  0
  2 54  1  1
  3 55  1  0
  3 56  1  0
  6 57  1  0
  7 58  1  0
  9 59  1  0
 10 60  1  0
 13 61  1  6
 15 62  1  0
 19 63  1  0
 21 64  1  0
 22 65  1  0
 24 66  1  1
 28 67  1  0
 28 68  1  0
 29 69  1  6
 34 70  1  0
 36 71  1  0
 38 72  1  0
 40 73  1  0
 41 74  1  0
 43 75  1  0
 44 76  1  0
 46 77  1  0
 47 78  1  0
 51 79  1  0
 52 80  1  0
M  END
>  <LIG_ID>  (90) 
89

>  <_smiles>  (90) 
O[C@@H]1CC2=C(O)C=C(O)C=C2O[C@@H]1C1=CC2=C(C(O)=C(O)C=C2[C@H]2OC3=C(C[C@H]2OC(=O)C2=CC(O)=C(O)C(O)=C2)C(O)=CC(O)=C3)C(=O)C(O)=C1

>  <_name>  (90) 
Theaflavin 3'-O-gallate

>  <_molecular_weight>  (90) 
716.598

>  <_formula>  (90) 
C36H28O16

>  <_logP>  (90) 
3.1949000000000023

>  <_molecular_wt_calculated>  (90) 
716.6040000000013

>  <_havy_atom_count>  (90) 
52

>  <_hydrogen_acceptors>  (90) 
16

>  <_hydrogen_donors>  (90) 
11

>  <_rotatable_bonds>  (90) 
15

>  <_amide_bonds>  (90) 
0

>  <_ring_count>  (90) 
7

$$$$
Theaflavin 3,3'-O-digallate
     RDKit          3D

 95102  0  0  0  0  0  0  0  0999 V2000
    0.5941   -0.0183   -0.2722 C   0  0  1  0  0  0  0  0  0  0  0  0
    1.8599   -0.4479    0.2314 O   0  0  0  0  0  0  0  0  0  0  0  0
    3.0095   -0.4719   -0.5661 C   0  0  0  0  0  0  0  0  0  0  0  0
    4.2490   -0.6887    0.0397 C   0  0  0  0  0  0  0  0  0  0  0  0
    5.4190   -0.7195   -0.7222 C   0  0  0  0  0  0  0  0  0  0  0  0
    6.6387   -0.9347   -0.0635 O   0  0  0  0  0  0  0  0  0  0  0  0
    7.7754   -1.5281   -0.6315 C   0  0  0  0  0  0  0  0  0  0  0  0
    7.6789   -2.2024   -1.6938 O   0  0  0  0  0  0  0  0  0  0  0  0
    9.0825   -1.4099    0.0529 C   0  0  0  0  0  0  0  0  0  0  0  0
   10.2306   -2.0166   -0.4829 C   0  0  0  0  0  0  0  0  0  0  0  0
   11.4703   -1.9074    0.1583 C   0  0  0  0  0  0  0  0  0  0  0  0
   12.5663   -2.5380   -0.4346 O   0  0  0  0  0  0  0  0  0  0  0  0
   11.5706   -1.1747    1.3646 C   0  0  0  0  0  0  0  0  0  0  0  0
   12.7761   -1.0270    2.0552 O   0  0  0  0  0  0  0  0  0  0  0  0
   10.4264   -0.5676    1.9005 C   0  0  0  0  0  0  0  0  0  0  0  0
   10.5248    0.1549    3.0888 O   0  0  0  0  0  0  0  0  0  0  0  0
    9.1922   -0.6846    1.2488 C   0  0  0  0  0  0  0  0  0  0  0  0
    5.3438   -0.4867   -2.1057 C   0  0  0  0  0  0  0  0  0  0  0  0
    4.1099   -0.2673   -2.7290 C   0  0  0  0  0  0  0  0  0  0  0  0
    4.1047   -0.0062   -4.1012 O   0  0  0  0  0  0  0  0  0  0  0  0
    2.9204   -0.3006   -1.9649 C   0  0  0  0  0  0  0  0  0  0  0  0
    1.5634   -0.1009   -2.6111 C   0  0  0  0  0  0  0  0  0  0  0  0
    0.3948   -0.5474   -1.7083 C   0  0  1  0  0  0  0  0  0  0  0  0
    0.2468   -1.9478   -1.7334 O   0  0  0  0  0  0  0  0  0  0  0  0
   -0.5500   -0.4790    0.6398 C   0  0  0  0  0  0  0  0  0  0  0  0
   -0.3893   -1.7148    1.2787 C   0  0  0  0  0  0  0  0  0  0  0  0
   -1.4444   -2.3333    1.9255 C   0  0  0  0  0  0  0  0  0  0  0  0
   -1.2347   -3.5374    2.5987 O   0  0  0  0  0  0  0  0  0  0  0  0
   -2.7189   -1.7620    1.8948 C   0  0  0  0  0  0  0  0  0  0  0  0
   -3.7917   -2.4766    2.4517 O   0  0  0  0  0  0  0  0  0  0  0  0
   -4.1199   -3.7970    2.1154 C   0  0  0  0  0  0  0  0  0  0  0  0
   -3.5494   -4.3639    1.1424 O   0  0  0  0  0  0  0  0  0  0  0  0
   -5.1666   -4.5098    2.8803 C   0  0  0  0  0  0  0  0  0  0  0  0
   -5.5077   -5.8366    2.5655 C   0  0  0  0  0  0  0  0  0  0  0  0
   -6.5006   -6.5084    3.2918 C   0  0  0  0  0  0  0  0  0  0  0  0
   -6.8350   -7.8242    2.9758 O   0  0  0  0  0  0  0  0  0  0  0  0
   -7.1628   -5.8589    4.3409 C   0  0  0  0  0  0  0  0  0  0  0  0
   -8.1485   -6.5438    5.0522 O   0  0  0  0  0  0  0  0  0  0  0  0
   -6.8295   -4.5329    4.6636 C   0  0  0  0  0  0  0  0  0  0  0  0
   -7.4869   -3.8827    5.7071 O   0  0  0  0  0  0  0  0  0  0  0  0
   -5.8354   -3.8654    3.9346 C   0  0  0  0  0  0  0  0  0  0  0  0
   -2.9340   -0.4824    1.3015 C   0  0  0  0  0  0  0  0  0  0  0  0
   -4.2484    0.0512    1.3671 C   0  0  0  0  0  0  0  0  0  0  0  0
   -5.0563   -0.3278    2.4484 O   0  0  0  0  0  0  0  0  0  0  0  0
   -4.8497    0.8352    0.3698 C   0  0  0  0  0  0  0  0  0  0  0  0
   -6.1089    0.8135    0.2922 O   0  0  0  0  0  0  0  0  0  0  0  0
   -4.1940    1.6613   -0.5337 C   0  0  0  0  0  0  0  0  0  0  0  0
   -2.9134    2.1850   -0.3714 C   0  0  0  0  0  0  0  0  0  0  0  0
   -1.8740    1.5353    0.2980 C   0  0  0  0  0  0  0  0  0  0  0  0
   -1.8213    0.1857    0.6948 C   0  0  0  0  0  0  0  0  0  0  0  0
   -2.5910    3.4998   -1.0689 C   0  0  0  0  0  0  0  0  0  0  0  0
   -3.6885    4.4040   -0.9327 O   0  0  0  0  0  0  0  0  0  0  0  0
   -3.8577    5.5107   -1.7707 C   0  0  0  0  0  0  0  0  0  0  0  0
   -4.8481    6.4476   -1.4647 C   0  0  0  0  0  0  0  0  0  0  0  0
   -5.0302    7.5722   -2.2760 C   0  0  0  0  0  0  0  0  0  0  0  0
   -6.0168    8.5098   -1.9790 O   0  0  0  0  0  0  0  0  0  0  0  0
   -4.2107    7.7634   -3.3906 C   0  0  0  0  0  0  0  0  0  0  0  0
   -3.2127    6.8358   -3.7116 C   0  0  0  0  0  0  0  0  0  0  0  0
   -2.3951    7.1054   -4.8115 O   0  0  0  0  0  0  0  0  0  0  0  0
   -3.0538    5.6734   -2.9194 C   0  0  0  0  0  0  0  0  0  0  0  0
   -2.0023    4.6336   -3.2437 C   0  0  0  0  0  0  0  0  0  0  0  0
   -2.2747    3.2810   -2.5591 C   0  0  1  0  0  0  0  0  0  0  0  0
   -1.1478    2.4537   -2.6874 O   0  0  0  0  0  0  0  0  0  0  0  0
    0.6621    1.0817   -0.3356 H   0  0  0  0  0  0  0  0  0  0  0  0
    4.3025   -0.8375    1.1110 H   0  0  0  0  0  0  0  0  0  0  0  0
   10.1704   -2.5803   -1.4060 H   0  0  0  0  0  0  0  0  0  0  0  0
   13.5021   -2.5210   -0.0559 H   0  0  0  0  0  0  0  0  0  0  0  0
   13.6538   -1.4245    1.7535 H   0  0  0  0  0  0  0  0  0  0  0  0
    9.7184    0.6066    3.5045 H   0  0  0  0  0  0  0  0  0  0  0  0
    8.3220   -0.2065    1.6811 H   0  0  0  0  0  0  0  0  0  0  0  0
    6.2442   -0.4346   -2.7029 H   0  0  0  0  0  0  0  0  0  0  0  0
    3.2689    0.2332   -4.6180 H   0  0  0  0  0  0  0  0  0  0  0  0
    1.4462    0.9780   -2.8517 H   0  0  0  0  0  0  0  0  0  0  0  0
    1.5007   -0.6763   -3.5593 H   0  0  0  0  0  0  0  0  0  0  0  0
   -0.5404   -0.1085   -2.1179 H   0  0  0  0  0  0  0  0  0  0  0  0
    1.0899   -2.3530   -1.4027 H   0  0  0  0  0  0  0  0  0  0  0  0
    0.5622   -2.2307    1.2495 H   0  0  0  0  0  0  0  0  0  0  0  0
   -0.3228   -3.9781    2.6344 H   0  0  0  0  0  0  0  0  0  0  0  0
   -5.0053   -6.3541    1.7576 H   0  0  0  0  0  0  0  0  0  0  0  0
   -6.3750   -8.3226    2.2228 H   0  0  0  0  0  0  0  0  0  0  0  0
   -8.6550   -6.1170    5.8186 H   0  0  0  0  0  0  0  0  0  0  0  0
   -7.2661   -2.9266    5.9603 H   0  0  0  0  0  0  0  0  0  0  0  0
   -5.5899   -2.8432    4.1949 H   0  0  0  0  0  0  0  0  0  0  0  0
   -6.0018    0.0111    2.5831 H   0  0  0  0  0  0  0  0  0  0  0  0
   -4.8320    2.1560   -1.2596 H   0  0  0  0  0  0  0  0  0  0  0  0
   -0.9658    2.1096    0.3762 H   0  0  0  0  0  0  0  0  0  0  0  0
   -1.7087    3.9837   -0.5919 H   0  0  0  0  0  0  0  0  0  0  0  0
   -5.4718    6.3023   -0.5915 H   0  0  0  0  0  0  0  0  0  0  0  0
   -6.6259    8.4016   -1.1764 H   0  0  0  0  0  0  0  0  0  0  0  0
   -4.3417    8.6451   -4.0057 H   0  0  0  0  0  0  0  0  0  0  0  0
   -1.6033    6.5316   -5.0696 H   0  0  0  0  0  0  0  0  0  0  0  0
   -1.0106    5.0220   -2.9247 H   0  0  0  0  0  0  0  0  0  0  0  0
   -1.9748    4.4508   -4.3389 H   0  0  0  0  0  0  0  0  0  0  0  0
   -3.1564    2.8014   -3.0469 H   0  0  0  0  0  0  0  0  0  0  0  0
   -1.1432    2.1184   -3.6218 H   0  0  0  0  0  0  0  0  0  0  0  0
  1  2  1  0
  2  3  1  0
  3  4  2  0
  4  5  1  0
  5  6  1  0
  6  7  1  0
  7  8  2  0
  7  9  1  0
  9 10  2  0
 10 11  1  0
 11 12  1  0
 11 13  2  0
 13 14  1  0
 13 15  1  0
 15 16  1  0
 15 17  2  0
  5 18  2  0
 18 19  1  0
 19 20  1  0
 19 21  2  0
 21 22  1  0
 22 23  1  0
 23 24  1  0
  1 25  1  0
 25 26  2  0
 26 27  1  0
 27 28  1  0
 27 29  2  0
 29 30  1  0
 30 31  1  0
 31 32  2  0
 31 33  1  0
 33 34  2  0
 34 35  1  0
 35 36  1  0
 35 37  2  0
 37 38  1  0
 37 39  1  0
 39 40  1  0
 39 41  2  0
 29 42  1  0
 42 43  2  0
 43 44  1  0
 43 45  1  0
 45 46  2  0
 45 47  1  0
 47 48  2  0
 48 49  1  0
 49 50  2  0
 48 51  1  0
 51 52  1  0
 52 53  1  0
 53 54  2  0
 54 55  1  0
 55 56  1  0
 55 57  2  0
 57 58  1  0
 58 59  1  0
 58 60  2  0
 60 61  1  0
 61 62  1  0
 62 63  1  0
 23  1  1  0
 50 25  1  0
 62 51  1  0
 21  3  1  0
 41 33  1  0
 50 42  1  0
 60 53  1  0
 17  9  1  0
  1 64  1  6
  4 65  1  0
 10 66  1  0
 12 67  1  0
 14 68  1  0
 16 69  1  0
 17 70  1  0
 18 71  1  0
 20 72  1  0
 22 73  1  0
 22 74  1  0
 23 75  1  6
 24 76  1  0
 26 77  1  0
 28 78  1  0
 34 79  1  0
 36 80  1  0
 38 81  1  0
 40 82  1  0
 41 83  1  0
 44 84  1  0
 47 85  1  0
 49 86  1  0
 51 87  1  0
 54 88  1  0
 56 89  1  0
 57 90  1  0
 59 91  1  0
 61 92  1  0
 61 93  1  0
 62 94  1  6
 63 95  1  0
M  END
>  <LIG_ID>  (91) 
90

>  <_smiles>  (91) 
[H][C@@]1(OC2=CC(OC(=O)C3=CC(O)=C(O)C(O)=C3)=CC(O)=C2C[C@H]1O)C1=CC(O)=C(OC(=O)C2=CC(O)=C(O)C(O)=C2)C2=C(O)C(=O)C=C(C=C12)C1OC2=CC(O)=CC(O)=C2C[C@H]1O

>  <_name>  (91) 
Theaflavin 3,3'-O-digallate

>  <_molecular_weight>  (91) 
868.702

>  <_formula>  (91) 
C43H32O20

>  <_logP>  (91) 
3.4742000000000073

>  <_molecular_wt_calculated>  (91) 
868.7090000000012

>  <_havy_atom_count>  (91) 
63

>  <_hydrogen_acceptors>  (91) 
20

>  <_hydrogen_donors>  (91) 
13

>  <_rotatable_bonds>  (91) 
19

>  <_amide_bonds>  (91) 
0

>  <_ring_count>  (91) 
8

$$$$
(+)-Gallocatechin 3-O-gallate
     RDKit          3D

 51 54  0  0  0  0  0  0  0  0999 V2000
   -1.1779   -4.9928    1.9333 O   0  0  0  0  0  0  0  0  0  0  0  0
   -1.1267   -3.8287    1.1698 C   0  0  0  0  0  0  0  0  0  0  0  0
   -1.1426   -3.8915   -0.2293 C   0  0  0  0  0  0  0  0  0  0  0  0
   -1.0898   -2.7162   -0.9923 C   0  0  0  0  0  0  0  0  0  0  0  0
   -1.1237   -2.7871   -2.3848 O   0  0  0  0  0  0  0  0  0  0  0  0
   -1.0045   -1.4672   -0.3488 C   0  0  0  0  0  0  0  0  0  0  0  0
   -0.9839   -0.1855   -1.1457 C   0  0  0  0  0  0  0  0  0  0  0  0
   -0.3295    0.9617   -0.3531 C   0  0  2  0  0  0  0  0  0  0  0  0
    1.0681    0.7088   -0.1946 O   0  0  0  0  0  0  0  0  0  0  0  0
    2.0093    0.8635   -1.2201 C   0  0  0  0  0  0  0  0  0  0  0  0
    1.6588    1.3395   -2.3353 O   0  0  0  0  0  0  0  0  0  0  0  0
    3.4166    0.4704   -0.9885 C   0  0  0  0  0  0  0  0  0  0  0  0
    3.8019   -0.0870    0.2409 C   0  0  0  0  0  0  0  0  0  0  0  0
    5.1281   -0.4684    0.4760 C   0  0  0  0  0  0  0  0  0  0  0  0
    5.4351   -1.0163    1.7234 O   0  0  0  0  0  0  0  0  0  0  0  0
    6.0969   -0.2900   -0.5398 C   0  0  0  0  0  0  0  0  0  0  0  0
    7.4367   -0.6481   -0.3705 O   0  0  0  0  0  0  0  0  0  0  0  0
    5.7143    0.2657   -1.7686 C   0  0  0  0  0  0  0  0  0  0  0  0
    6.6684    0.4412   -2.7700 O   0  0  0  0  0  0  0  0  0  0  0  0
    4.3838    0.6425   -1.9909 C   0  0  0  0  0  0  0  0  0  0  0  0
   -0.9678    1.0849    1.0460 C   0  0  2  0  0  0  0  0  0  0  0  0
   -0.9572   -0.1767    1.7245 O   0  0  0  0  0  0  0  0  0  0  0  0
   -1.0110   -1.4094    1.0593 C   0  0  0  0  0  0  0  0  0  0  0  0
   -1.0629   -2.5880    1.8089 C   0  0  0  0  0  0  0  0  0  0  0  0
   -2.3662    1.6723    0.9783 C   0  0  0  0  0  0  0  0  0  0  0  0
   -2.5195    3.0652    0.8851 C   0  0  0  0  0  0  0  0  0  0  0  0
   -3.7895    3.6420    0.7883 C   0  0  0  0  0  0  0  0  0  0  0  0
   -3.8957    5.0301    0.7039 O   0  0  0  0  0  0  0  0  0  0  0  0
   -4.9320    2.8247    0.7752 C   0  0  0  0  0  0  0  0  0  0  0  0
   -6.1961    3.4082    0.6796 O   0  0  0  0  0  0  0  0  0  0  0  0
   -4.7907    1.4292    0.8557 C   0  0  0  0  0  0  0  0  0  0  0  0
   -5.9202    0.6119    0.8363 O   0  0  0  0  0  0  0  0  0  0  0  0
   -3.5140    0.8594    0.9531 C   0  0  0  0  0  0  0  0  0  0  0  0
   -1.2259   -5.9081    1.5010 H   0  0  0  0  0  0  0  0  0  0  0  0
   -1.2005   -4.8530   -0.7239 H   0  0  0  0  0  0  0  0  0  0  0  0
   -1.1852   -3.6745   -2.8702 H   0  0  0  0  0  0  0  0  0  0  0  0
   -0.4304   -0.3322   -2.0973 H   0  0  0  0  0  0  0  0  0  0  0  0
   -2.0274    0.0892   -1.4093 H   0  0  0  0  0  0  0  0  0  0  0  0
   -0.4674    1.9204   -0.9022 H   0  0  0  0  0  0  0  0  0  0  0  0
    3.0719   -0.2319    1.0281 H   0  0  0  0  0  0  0  0  0  0  0  0
    6.3575   -1.3244    1.9947 H   0  0  0  0  0  0  0  0  0  0  0  0
    7.8119   -1.0538    0.4745 H   0  0  0  0  0  0  0  0  0  0  0  0
    6.4270    0.8397   -3.6700 H   0  0  0  0  0  0  0  0  0  0  0  0
    4.1102    1.0695   -2.9479 H   0  0  0  0  0  0  0  0  0  0  0  0
   -0.3410    1.7798    1.6474 H   0  0  0  0  0  0  0  0  0  0  0  0
   -1.0581   -2.5384    2.8906 H   0  0  0  0  0  0  0  0  0  0  0  0
   -1.6472    3.7078    0.8849 H   0  0  0  0  0  0  0  0  0  0  0  0
   -4.7907    5.4988    0.6312 H   0  0  0  0  0  0  0  0  0  0  0  0
   -7.0457    2.8568    0.6662 H   0  0  0  0  0  0  0  0  0  0  0  0
   -5.8470   -0.3973    0.8916 H   0  0  0  0  0  0  0  0  0  0  0  0
   -3.4285   -0.2167    1.0050 H   0  0  0  0  0  0  0  0  0  0  0  0
  1  2  1  0
  2  3  2  0
  3  4  1  0
  4  5  1  0
  4  6  2  0
  6  7  1  0
  7  8  1  0
  8  9  1  0
  9 10  1  0
 10 11  2  0
 10 12  1  0
 12 13  2  0
 13 14  1  0
 14 15  1  0
 14 16  2  0
 16 17  1  0
 16 18  1  0
 18 19  1  0
 18 20  2  0
  8 21  1  0
 21 22  1  0
 22 23  1  0
 23 24  2  0
 21 25  1  0
 25 26  2  0
 26 27  1  0
 27 28  1  0
 27 29  2  0
 29 30  1  0
 29 31  1  0
 31 32  1  0
 31 33  2  0
 24  2  1  0
 33 25  1  0
 23  6  1  0
 20 12  1  0
  1 34  1  0
  3 35  1  0
  5 36  1  0
  7 37  1  0
  7 38  1  0
  8 39  1  6
 13 40  1  0
 15 41  1  0
 17 42  1  0
 19 43  1  0
 20 44  1  0
 21 45  1  1
 24 46  1  0
 26 47  1  0
 28 48  1  0
 30 49  1  0
 32 50  1  0
 33 51  1  0
M  END
>  <LIG_ID>  (92) 
91

>  <_smiles>  (92) 
OC1=CC(O)=C2C[C@H](OC(=O)C3=CC(O)=C(O)C(O)=C3)[C@H](OC2=C1)C1=CC(O)=C(O)C(O)=C1

>  <_name>  (92) 
(+)-Gallocatechin 3-O-gallate

>  <_molecular_weight>  (92) 
458.372

>  <_formula>  (92) 
C22H18O11

>  <_logP>  (92) 
2.2332

>  <_molecular_wt_calculated>  (92) 
458.37499999999994

>  <_havy_atom_count>  (92) 
33

>  <_hydrogen_acceptors>  (92) 
11

>  <_hydrogen_donors>  (92) 
8

>  <_rotatable_bonds>  (92) 
11

>  <_amide_bonds>  (92) 
0

>  <_ring_count>  (92) 
4

$$$$
(+)-Catechin 3-O-gallate
     RDKit          3D

 50 53  0  0  0  0  0  0  0  0999 V2000
   -2.0616   -5.1293   -1.0879 O   0  0  0  0  0  0  0  0  0  0  0  0
   -1.8539   -3.7582   -1.2211 C   0  0  0  0  0  0  0  0  0  0  0  0
   -1.5546   -2.9944   -0.0922 C   0  0  0  0  0  0  0  0  0  0  0  0
   -1.3382   -1.6188   -0.2066 C   0  0  0  0  0  0  0  0  0  0  0  0
   -1.3926   -0.9927   -1.4710 C   0  0  0  0  0  0  0  0  0  0  0  0
   -1.1385    0.4956   -1.5699 C   0  0  0  0  0  0  0  0  0  0  0  0
   -0.3125    1.0249   -0.3868 C   0  0  0  0  0  0  0  0  0  0  0  0
    1.0293    0.5512   -0.5195 O   0  0  0  0  0  0  0  0  0  0  0  0
    2.1212    1.1057    0.1598 C   0  0  0  0  0  0  0  0  0  0  0  0
    1.9649    2.1285    0.8826 O   0  0  0  0  0  0  0  0  0  0  0  0
    3.4591    0.4897    0.0217 C   0  0  0  0  0  0  0  0  0  0  0  0
    3.6301   -0.6599   -0.7671 C   0  0  0  0  0  0  0  0  0  0  0  0
    4.8899   -1.2521   -0.9027 C   0  0  0  0  0  0  0  0  0  0  0  0
    5.0173   -2.3929   -1.6949 O   0  0  0  0  0  0  0  0  0  0  0  0
    6.0013   -0.6972   -0.2460 C   0  0  0  0  0  0  0  0  0  0  0  0
    7.2546   -1.2946   -0.3871 O   0  0  0  0  0  0  0  0  0  0  0  0
    5.8402    0.4524    0.5458 C   0  0  0  0  0  0  0  0  0  0  0  0
    6.9388    1.0079    1.2003 O   0  0  0  0  0  0  0  0  0  0  0  0
    4.5741    1.0398    0.6767 C   0  0  0  0  0  0  0  0  0  0  0  0
   -0.9087    0.5445    0.9540 C   0  0  0  0  0  0  0  0  0  0  0  0
   -1.0673   -0.8774    0.9512 O   0  0  0  0  0  0  0  0  0  0  0  0
   -2.2092    1.2579    1.2770 C   0  0  0  0  0  0  0  0  0  0  0  0
   -3.4652    0.6930    0.9829 C   0  0  0  0  0  0  0  0  0  0  0  0
   -4.6455    1.3916    1.2615 C   0  0  0  0  0  0  0  0  0  0  0  0
   -5.8707    0.7973    0.9604 O   0  0  0  0  0  0  0  0  0  0  0  0
   -4.5823    2.6725    1.8340 C   0  0  0  0  0  0  0  0  0  0  0  0
   -5.7548    3.3722    2.1145 O   0  0  0  0  0  0  0  0  0  0  0  0
   -3.3360    3.2437    2.1193 C   0  0  0  0  0  0  0  0  0  0  0  0
   -2.1598    2.5447    1.8392 C   0  0  0  0  0  0  0  0  0  0  0  0
   -1.7448   -1.7621   -2.6058 C   0  0  0  0  0  0  0  0  0  0  0  0
   -1.9093   -1.1939   -3.8711 O   0  0  0  0  0  0  0  0  0  0  0  0
   -1.9521   -3.1399   -2.4726 C   0  0  0  0  0  0  0  0  0  0  0  0
   -2.2833   -5.7116   -1.8870 H   0  0  0  0  0  0  0  0  0  0  0  0
   -1.4961   -3.4692    0.8792 H   0  0  0  0  0  0  0  0  0  0  0  0
   -0.5747    0.7301   -2.4975 H   0  0  0  0  0  0  0  0  0  0  0  0
   -2.1140    1.0256   -1.6159 H   0  0  0  0  0  0  0  0  0  0  0  0
   -0.3124    2.1375   -0.4325 H   0  0  0  0  0  0  0  0  0  0  0  0
    2.7865   -1.1047   -1.2808 H   0  0  0  0  0  0  0  0  0  0  0  0
    5.9057   -2.8612   -1.8268 H   0  0  0  0  0  0  0  0  0  0  0  0
    8.0818   -0.9281    0.0682 H   0  0  0  0  0  0  0  0  0  0  0  0
    6.8508    1.8363    1.7773 H   0  0  0  0  0  0  0  0  0  0  0  0
    4.4656    1.9254    1.2906 H   0  0  0  0  0  0  0  0  0  0  0  0
   -0.1901    0.7848    1.7669 H   0  0  0  0  0  0  0  0  0  0  0  0
   -3.5417   -0.2876    0.5355 H   0  0  0  0  0  0  0  0  0  0  0  0
   -6.7528    1.2611    1.1414 H   0  0  0  0  0  0  0  0  0  0  0  0
   -5.7348    4.2978    2.5267 H   0  0  0  0  0  0  0  0  0  0  0  0
   -3.2772    4.2327    2.5557 H   0  0  0  0  0  0  0  0  0  0  0  0
   -1.2061    3.0091    2.0587 H   0  0  0  0  0  0  0  0  0  0  0  0
   -1.8651   -0.1986   -4.0446 H   0  0  0  0  0  0  0  0  0  0  0  0
   -2.2052   -3.7289   -3.3454 H   0  0  0  0  0  0  0  0  0  0  0  0
  1  2  1  0
  2  3  2  0
  3  4  1  0
  4  5  2  0
  5  6  1  0
  6  7  1  0
  7  8  1  0
  8  9  1  0
  9 10  2  0
  9 11  1  0
 11 12  2  0
 12 13  1  0
 13 14  1  0
 13 15  2  0
 15 16  1  0
 15 17  1  0
 17 18  1  0
 17 19  2  0
  7 20  1  0
 20 21  1  0
 20 22  1  0
 22 23  2  0
 23 24  1  0
 24 25  1  0
 24 26  2  0
 26 27  1  0
 26 28  1  0
 28 29  2  0
  5 30  1  0
 30 31  1  0
 30 32  2  0
 32  2  1  0
 21  4  1  0
 29 22  1  0
 19 11  1  0
  1 33  1  0
  3 34  1  0
  6 35  1  0
  6 36  1  0
  7 37  1  0
 12 38  1  0
 14 39  1  0
 16 40  1  0
 18 41  1  0
 19 42  1  0
 20 43  1  0
 23 44  1  0
 25 45  1  0
 27 46  1  0
 28 47  1  0
 29 48  1  0
 31 49  1  0
 32 50  1  0
M  END
>  <LIG_ID>  (93) 
92

>  <_smiles>  (93) 
OC1=CC2=C(CC(OC(=O)C3=CC(O)=C(O)C(O)=C3)C(O2)C2=CC(O)=C(O)C=C2)C(O)=C1

>  <_name>  (93) 
(+)-Catechin 3-O-gallate

>  <_molecular_weight>  (93) 
442.372

>  <_formula>  (93) 
C22H18O10

>  <_logP>  (93) 
2.5276000000000014

>  <_molecular_wt_calculated>  (93) 
442.3759999999999

>  <_havy_atom_count>  (93) 
32

>  <_hydrogen_acceptors>  (93) 
10

>  <_hydrogen_donors>  (93) 
7

>  <_rotatable_bonds>  (93) 
10

>  <_amide_bonds>  (93) 
0

>  <_ring_count>  (93) 
4

$$$$
Procyanidin dimer B1
     RDKit          3D

 68 73  0  0  0  0  0  0  0  0999 V2000
    3.4150    1.9072    1.3189 C   0  0  1  0  0  0  0  0  0  0  0  0
    2.5841    2.5683    2.2395 O   0  0  0  0  0  0  0  0  0  0  0  0
    3.6431    0.4546    1.7719 C   0  0  0  0  0  0  0  0  0  0  0  0
    2.4073   -0.4058    1.6107 C   0  0  0  0  0  0  0  0  0  0  0  0
    2.2684   -1.6184    2.3180 C   0  0  0  0  0  0  0  0  0  0  0  0
    3.2627   -2.1065    3.1696 O   0  0  0  0  0  0  0  0  0  0  0  0
    1.1089   -2.3764    2.1688 C   0  0  0  0  0  0  0  0  0  0  0  0
    0.0977   -1.9866    1.2854 C   0  0  0  0  0  0  0  0  0  0  0  0
   -1.0454   -2.7781    1.1825 O   0  0  0  0  0  0  0  0  0  0  0  0
    0.2488   -0.8144    0.5056 C   0  0  0  0  0  0  0  0  0  0  0  0
    1.4072   -0.0241    0.6880 C   0  0  0  0  0  0  0  0  0  0  0  0
    1.5604    1.1524   -0.0639 O   0  0  0  0  0  0  0  0  0  0  0  0
    2.7497    1.9442   -0.0664 C   0  0  2  0  0  0  0  0  0  0  0  0
    3.7057    1.5241   -1.1701 C   0  0  0  0  0  0  0  0  0  0  0  0
    4.6567    2.4476   -1.6370 C   0  0  0  0  0  0  0  0  0  0  0  0
    5.5662    2.0891   -2.6349 C   0  0  0  0  0  0  0  0  0  0  0  0
    5.5438    0.7994   -3.1794 C   0  0  0  0  0  0  0  0  0  0  0  0
    6.4487    0.4377   -4.1757 O   0  0  0  0  0  0  0  0  0  0  0  0
    4.6074   -0.1338   -2.7193 C   0  0  0  0  0  0  0  0  0  0  0  0
    4.5888   -1.4176   -3.2618 O   0  0  0  0  0  0  0  0  0  0  0  0
    3.6952    0.2255   -1.7170 C   0  0  0  0  0  0  0  0  0  0  0  0
   -0.8137   -0.3424   -0.4939 C   0  0  1  0  0  0  0  0  0  0  0  0
   -1.4853   -1.4842   -1.2400 C   0  0  0  0  0  0  0  0  0  0  0  0
   -0.7642   -2.2406   -2.1859 C   0  0  0  0  0  0  0  0  0  0  0  0
    0.5771   -1.9510   -2.4378 O   0  0  0  0  0  0  0  0  0  0  0  0
   -1.3963   -3.2852   -2.8743 C   0  0  0  0  0  0  0  0  0  0  0  0
   -2.7426   -3.5823   -2.6291 C   0  0  0  0  0  0  0  0  0  0  0  0
   -3.3774   -4.6160   -3.3140 O   0  0  0  0  0  0  0  0  0  0  0  0
   -3.4584   -2.8380   -1.6884 C   0  0  0  0  0  0  0  0  0  0  0  0
   -2.8375   -1.8013   -0.9862 C   0  0  0  0  0  0  0  0  0  0  0  0
   -3.5765   -1.0793   -0.0426 O   0  0  0  0  0  0  0  0  0  0  0  0
   -2.9685   -0.1638    0.8698 C   0  0  2  0  0  0  0  0  0  0  0  0
   -4.0037    0.7677    1.4584 C   0  0  0  0  0  0  0  0  0  0  0  0
   -5.0967    1.2124    0.6942 C   0  0  0  0  0  0  0  0  0  0  0  0
   -6.0250    2.1022    1.2403 C   0  0  0  0  0  0  0  0  0  0  0  0
   -5.8691    2.5705    2.5516 C   0  0  0  0  0  0  0  0  0  0  0  0
   -6.7976    3.4576    3.0939 O   0  0  0  0  0  0  0  0  0  0  0  0
   -4.7705    2.1447    3.3170 C   0  0  0  0  0  0  0  0  0  0  0  0
   -4.5826    2.5981    4.6223 O   0  0  0  0  0  0  0  0  0  0  0  0
   -3.8429    1.2527    2.7672 C   0  0  0  0  0  0  0  0  0  0  0  0
   -1.8344    0.6199    0.1746 C   0  0  2  0  0  0  0  0  0  0  0  0
   -2.3503    1.5280   -0.7708 O   0  0  0  0  0  0  0  0  0  0  0  0
    4.3980    2.4323    1.2662 H   0  0  0  0  0  0  0  0  0  0  0  0
    3.1462    2.7921    3.0269 H   0  0  0  0  0  0  0  0  0  0  0  0
    4.4701    0.0057    1.1808 H   0  0  0  0  0  0  0  0  0  0  0  0
    3.9588    0.4823    2.8362 H   0  0  0  0  0  0  0  0  0  0  0  0
    4.1725   -1.6768    3.2707 H   0  0  0  0  0  0  0  0  0  0  0  0
    0.9999   -3.2915    2.7378 H   0  0  0  0  0  0  0  0  0  0  0  0
   -1.1653   -3.6209    1.7319 H   0  0  0  0  0  0  0  0  0  0  0  0
    2.4415    2.9928   -0.2738 H   0  0  0  0  0  0  0  0  0  0  0  0
    4.6944    3.4486   -1.2251 H   0  0  0  0  0  0  0  0  0  0  0  0
    6.2898    2.8150   -2.9833 H   0  0  0  0  0  0  0  0  0  0  0  0
    7.1381    1.0915   -4.5283 H   0  0  0  0  0  0  0  0  0  0  0  0
    3.9233   -2.1156   -2.9504 H   0  0  0  0  0  0  0  0  0  0  0  0
    2.9859   -0.5144   -1.3766 H   0  0  0  0  0  0  0  0  0  0  0  0
   -0.3008    0.2512   -1.2828 H   0  0  0  0  0  0  0  0  0  0  0  0
    1.1185   -2.4804   -3.1111 H   0  0  0  0  0  0  0  0  0  0  0  0
   -0.8415   -3.8646   -3.6015 H   0  0  0  0  0  0  0  0  0  0  0  0
   -2.8868   -5.1753   -4.0020 H   0  0  0  0  0  0  0  0  0  0  0  0
   -4.4984   -3.0703   -1.4961 H   0  0  0  0  0  0  0  0  0  0  0  0
   -2.5260   -0.7579    1.6977 H   0  0  0  0  0  0  0  0  0  0  0  0
   -5.2306    0.8744   -0.3257 H   0  0  0  0  0  0  0  0  0  0  0  0
   -6.8643    2.4312    0.6408 H   0  0  0  0  0  0  0  0  0  0  0  0
   -7.5973    3.7799    2.5615 H   0  0  0  0  0  0  0  0  0  0  0  0
   -5.2245    3.2446    5.0650 H   0  0  0  0  0  0  0  0  0  0  0  0
   -2.9936    0.9391    3.3624 H   0  0  0  0  0  0  0  0  0  0  0  0
   -1.3068    1.2235    0.9467 H   0  0  0  0  0  0  0  0  0  0  0  0
   -2.8053    1.0054   -1.4813 H   0  0  0  0  0  0  0  0  0  0  0  0
  1  2  1  0
  1  3  1  0
  3  4  1  0
  4  5  2  0
  5  6  1  0
  5  7  1  0
  7  8  2  0
  8  9  1  0
  8 10  1  0
 10 11  2  0
 11 12  1  0
 12 13  1  0
 13 14  1  0
 14 15  2  0
 15 16  1  0
 16 17  2  0
 17 18  1  0
 17 19  1  0
 19 20  1  0
 19 21  2  0
 10 22  1  0
 22 23  1  0
 23 24  2  0
 24 25  1  0
 24 26  1  0
 26 27  2  0
 27 28  1  0
 27 29  1  0
 29 30  2  0
 30 31  1  0
 31 32  1  0
 32 33  1  0
 33 34  2  0
 34 35  1  0
 35 36  2  0
 36 37  1  0
 36 38  1  0
 38 39  1  0
 38 40  2  0
 32 41  1  0
 41 42  1  0
 13  1  1  0
 21 14  1  0
 41 22  1  0
 11  4  1  0
 30 23  1  0
 40 33  1  0
  1 43  1  6
  2 44  1  0
  3 45  1  0
  3 46  1  0
  6 47  1  0
  7 48  1  0
  9 49  1  0
 13 50  1  6
 15 51  1  0
 16 52  1  0
 18 53  1  0
 20 54  1  0
 21 55  1  0
 22 56  1  6
 25 57  1  0
 26 58  1  0
 28 59  1  0
 29 60  1  0
 32 61  1  1
 34 62  1  0
 35 63  1  0
 37 64  1  0
 39 65  1  0
 40 66  1  0
 41 67  1  1
 42 68  1  0
M  END
>  <LIG_ID>  (94) 
93

>  <_smiles>  (94) 
[H][C@]1(O)CC2=C(O)C=C(O)C(=C2O[C@]1([H])C1=CC=C(O)C(O)=C1)[C@@]1([H])C2=C(O)C=C(O)C=C2O[C@]([H])(C2=CC=C(O)C(O)=C2)[C@]1([H])O

>  <_name>  (94) 
Procyanidin dimer B1

>  <_molecular_weight>  (94) 
578.52

>  <_formula>  (94) 
C30H26O12

>  <_logP>  (94) 
2.9950000000000023

>  <_molecular_wt_calculated>  (94) 
578.5260000000013

>  <_havy_atom_count>  (94) 
42

>  <_hydrogen_acceptors>  (94) 
12

>  <_hydrogen_donors>  (94) 
10

>  <_rotatable_bonds>  (94) 
13

>  <_amide_bonds>  (94) 
0

>  <_ring_count>  (94) 
6

$$$$
Procyanidin dimer B2
     RDKit          3D

 68 73  0  0  0  0  0  0  0  0999 V2000
   -1.3304   -2.0653    0.6281 C   0  0  2  0  0  0  0  0  0  0  0  0
   -2.0234   -1.2728   -0.5172 C   0  0  1  0  0  0  0  0  0  0  0  0
   -3.4211   -1.4399   -0.4641 O   0  0  0  0  0  0  0  0  0  0  0  0
   -1.6380    0.2184   -0.4648 C   0  0  2  0  0  0  0  0  0  0  0  0
   -1.9282    0.7594    0.8221 O   0  0  0  0  0  0  0  0  0  0  0  0
   -1.6902    0.0471    2.0019 C   0  0  0  0  0  0  0  0  0  0  0  0
   -1.7604    0.7250    3.2209 C   0  0  0  0  0  0  0  0  0  0  0  0
   -1.5076    0.0519    4.4193 C   0  0  0  0  0  0  0  0  0  0  0  0
   -1.5682    0.7245    5.6377 O   0  0  0  0  0  0  0  0  0  0  0  0
   -1.1880   -1.3065    4.3978 C   0  0  0  0  0  0  0  0  0  0  0  0
   -1.1224   -2.0078    3.1887 C   0  0  0  0  0  0  0  0  0  0  0  0
   -0.7882   -3.3633    3.2388 O   0  0  0  0  0  0  0  0  0  0  0  0
   -1.3876   -1.3356    1.9683 C   0  0  0  0  0  0  0  0  0  0  0  0
   -2.3267    1.0158   -1.5474 C   0  0  0  0  0  0  0  0  0  0  0  0
   -3.6090    1.5562   -1.3461 C   0  0  0  0  0  0  0  0  0  0  0  0
   -4.2478    2.2734   -2.3682 C   0  0  0  0  0  0  0  0  0  0  0  0
   -5.5161    2.8124   -2.1580 O   0  0  0  0  0  0  0  0  0  0  0  0
   -3.6063    2.4456   -3.6065 C   0  0  0  0  0  0  0  0  0  0  0  0
   -4.2141    3.1556   -4.6414 O   0  0  0  0  0  0  0  0  0  0  0  0
   -2.3374    1.8958   -3.8131 C   0  0  0  0  0  0  0  0  0  0  0  0
   -1.7036    1.1801   -2.7949 C   0  0  0  0  0  0  0  0  0  0  0  0
    0.0874   -2.4965    0.2197 C   0  0  0  0  0  0  0  0  0  0  0  0
    0.2751   -3.6827   -0.5412 C   0  0  0  0  0  0  0  0  0  0  0  0
   -0.7889   -4.4590   -1.0109 O   0  0  0  0  0  0  0  0  0  0  0  0
    1.5625   -4.1109   -0.8686 C   0  0  0  0  0  0  0  0  0  0  0  0
    2.6841   -3.3667   -0.5041 C   0  0  0  0  0  0  0  0  0  0  0  0
    3.9579   -3.8076   -0.8645 O   0  0  0  0  0  0  0  0  0  0  0  0
    2.5273   -2.1709    0.2098 C   0  0  0  0  0  0  0  0  0  0  0  0
    1.2321   -1.7171    0.5424 C   0  0  0  0  0  0  0  0  0  0  0  0
    1.0826   -0.4870    1.1988 O   0  0  0  0  0  0  0  0  0  0  0  0
    2.1531    0.4149    1.4807 C   0  0  1  0  0  0  0  0  0  0  0  0
    3.4671   -0.3579    1.6984 C   0  0  2  0  0  0  0  0  0  0  0  0
    4.5381    0.5382    1.8483 O   0  0  0  0  0  0  0  0  0  0  0  0
    3.7381   -1.3272    0.5384 C   0  0  0  0  0  0  0  0  0  0  0  0
    2.2555    1.4880    0.4092 C   0  0  0  0  0  0  0  0  0  0  0  0
    2.0853    1.1912   -0.9567 C   0  0  0  0  0  0  0  0  0  0  0  0
    2.1814    2.1999   -1.9257 C   0  0  0  0  0  0  0  0  0  0  0  0
    2.0032    1.8946   -3.2742 O   0  0  0  0  0  0  0  0  0  0  0  0
    2.4594    3.5194   -1.5346 C   0  0  0  0  0  0  0  0  0  0  0  0
    2.5575    4.5451   -2.4742 O   0  0  0  0  0  0  0  0  0  0  0  0
    2.6443    3.8168   -0.1818 C   0  0  0  0  0  0  0  0  0  0  0  0
    2.5475    2.8109    0.7826 C   0  0  0  0  0  0  0  0  0  0  0  0
   -1.9395   -2.9778    0.7900 H   0  0  0  0  0  0  0  0  0  0  0  0
   -1.6864   -1.6801   -1.4963 H   0  0  0  0  0  0  0  0  0  0  0  0
   -3.7372   -1.1083    0.4161 H   0  0  0  0  0  0  0  0  0  0  0  0
   -0.5439    0.2978   -0.6212 H   0  0  0  0  0  0  0  0  0  0  0  0
   -2.0011    1.7806    3.2332 H   0  0  0  0  0  0  0  0  0  0  0  0
   -1.7958    1.7107    5.6877 H   0  0  0  0  0  0  0  0  0  0  0  0
   -0.9873   -1.8227    5.3284 H   0  0  0  0  0  0  0  0  0  0  0  0
   -0.6980   -3.9482    2.4192 H   0  0  0  0  0  0  0  0  0  0  0  0
   -4.1138    1.4204   -0.3977 H   0  0  0  0  0  0  0  0  0  0  0  0
   -6.0003    2.7018   -1.2747 H   0  0  0  0  0  0  0  0  0  0  0  0
   -5.1320    3.5722   -4.5414 H   0  0  0  0  0  0  0  0  0  0  0  0
   -1.8423    2.0206   -4.7678 H   0  0  0  0  0  0  0  0  0  0  0  0
   -0.7258    0.7530   -2.9793 H   0  0  0  0  0  0  0  0  0  0  0  0
   -1.7594   -4.1811   -0.9695 H   0  0  0  0  0  0  0  0  0  0  0  0
    1.6888   -5.0241   -1.4371 H   0  0  0  0  0  0  0  0  0  0  0  0
    4.0966   -4.6661   -1.3847 H   0  0  0  0  0  0  0  0  0  0  0  0
    1.8992    0.9118    2.4430 H   0  0  0  0  0  0  0  0  0  0  0  0
    3.3516   -0.9560    2.6336 H   0  0  0  0  0  0  0  0  0  0  0  0
    5.2888    0.0237    2.2451 H   0  0  0  0  0  0  0  0  0  0  0  0
    4.0421   -0.7617   -0.3681 H   0  0  0  0  0  0  0  0  0  0  0  0
    4.5882   -1.9829    0.8273 H   0  0  0  0  0  0  0  0  0  0  0  0
    1.8715    0.1822   -1.2783 H   0  0  0  0  0  0  0  0  0  0  0  0
    1.8073    0.9497   -3.5836 H   0  0  0  0  0  0  0  0  0  0  0  0
    2.4309    4.3804   -3.4656 H   0  0  0  0  0  0  0  0  0  0  0  0
    2.8640    4.8319    0.1236 H   0  0  0  0  0  0  0  0  0  0  0  0
    2.6977    3.0666    1.8243 H   0  0  0  0  0  0  0  0  0  0  0  0
  1  2  1  0
  2  3  1  0
  2  4  1  0
  4  5  1  0
  5  6  1  0
  6  7  2  0
  7  8  1  0
  8  9  1  0
  8 10  2  0
 10 11  1  0
 11 12  1  0
 11 13  2  0
  4 14  1  0
 14 15  2  0
 15 16  1  0
 16 17  1  0
 16 18  2  0
 18 19  1  0
 18 20  1  0
 20 21  2  0
  1 22  1  0
 22 23  2  0
 23 24  1  0
 23 25  1  0
 25 26  2  0
 26 27  1  0
 26 28  1  0
 28 29  2  0
 29 30  1  0
 30 31  1  0
 31 32  1  0
 32 33  1  0
 32 34  1  0
 31 35  1  0
 35 36  2  0
 36 37  1  0
 37 38  1  0
 37 39  2  0
 39 40  1  0
 39 41  1  0
 41 42  2  0
 13  1  1  0
 21 14  1  0
 29 22  1  0
 42 35  1  0
 13  6  1  0
 34 28  1  0
  1 43  1  1
  2 44  1  6
  3 45  1  0
  4 46  1  6
  7 47  1  0
  9 48  1  0
 10 49  1  0
 12 50  1  0
 15 51  1  0
 17 52  1  0
 19 53  1  0
 20 54  1  0
 21 55  1  0
 24 56  1  0
 25 57  1  0
 27 58  1  0
 31 59  1  1
 32 60  1  1
 33 61  1  0
 34 62  1  0
 34 63  1  0
 36 64  1  0
 38 65  1  0
 40 66  1  0
 41 67  1  0
 42 68  1  0
M  END
>  <LIG_ID>  (95) 
94

>  <_smiles>  (95) 
[H][C@]1([C@@H](O)[C@H](OC2=CC(O)=CC(O)=C12)C1=CC(O)=C(O)C=C1)C1=C(O)C=C(O)C2=C1O[C@@H]([C@H](O)C2)C1=CC(O)=C(O)C=C1

>  <_name>  (95) 
Procyanidin dimer B2

>  <_molecular_weight>  (95) 
578.52

>  <_formula>  (95) 
C30H26O12

>  <_logP>  (95) 
2.995

>  <_molecular_wt_calculated>  (95) 
578.5260000000013

>  <_havy_atom_count>  (95) 
42

>  <_hydrogen_acceptors>  (95) 
12

>  <_hydrogen_donors>  (95) 
10

>  <_rotatable_bonds>  (95) 
13

>  <_amide_bonds>  (95) 
0

>  <_ring_count>  (95) 
6

$$$$
Procyanidin dimer B3
     RDKit          3D

 68 73  0  0  0  0  0  0  0  0999 V2000
    0.5122   -1.1446    0.5286 C   0  0  1  0  0  0  0  0  0  0  0  0
    1.4626    0.0852    0.4758 C   0  0  2  0  0  0  0  0  0  0  0  0
    0.8085    1.1952   -0.0908 O   0  0  0  0  0  0  0  0  0  0  0  0
    2.7553   -0.2461   -0.2892 C   0  0  2  0  0  0  0  0  0  0  0  0
    3.3868   -1.3637    0.3273 O   0  0  0  0  0  0  0  0  0  0  0  0
    2.6624   -2.4965    0.7054 C   0  0  0  0  0  0  0  0  0  0  0  0
    3.3585   -3.6626    1.0324 C   0  0  0  0  0  0  0  0  0  0  0  0
    2.6671   -4.8344    1.3383 C   0  0  0  0  0  0  0  0  0  0  0  0
    3.3778   -5.9861    1.6686 O   0  0  0  0  0  0  0  0  0  0  0  0
    1.2696   -4.8476    1.2903 C   0  0  0  0  0  0  0  0  0  0  0  0
    0.5556   -3.6895    0.9626 C   0  0  0  0  0  0  0  0  0  0  0  0
   -0.8311   -3.7945    0.8402 O   0  0  0  0  0  0  0  0  0  0  0  0
    1.2490   -2.4692    0.7474 C   0  0  0  0  0  0  0  0  0  0  0  0
    3.7007    0.9324   -0.3037 C   0  0  0  0  0  0  0  0  0  0  0  0
    3.8013    1.7427   -1.4455 C   0  0  0  0  0  0  0  0  0  0  0  0
    4.6476    2.8585   -1.4640 C   0  0  0  0  0  0  0  0  0  0  0  0
    4.7010    3.6168   -2.6354 O   0  0  0  0  0  0  0  0  0  0  0  0
    5.4060    3.1770   -0.3123 C   0  0  0  0  0  0  0  0  0  0  0  0
    6.2730    4.2701   -0.2576 O   0  0  0  0  0  0  0  0  0  0  0  0
    5.2925    2.3745    0.8285 C   0  0  0  0  0  0  0  0  0  0  0  0
    4.4452    1.2654    0.8381 C   0  0  0  0  0  0  0  0  0  0  0  0
   -0.5537   -0.8828    1.5948 C   0  0  0  0  0  0  0  0  0  0  0  0
   -0.2642   -1.0327    2.9692 C   0  0  0  0  0  0  0  0  0  0  0  0
    1.0079   -1.4256    3.3867 O   0  0  0  0  0  0  0  0  0  0  0  0
   -1.2547   -0.7892    3.9252 C   0  0  0  0  0  0  0  0  0  0  0  0
   -2.5269   -0.3585    3.5487 C   0  0  0  0  0  0  0  0  0  0  0  0
   -3.4824   -0.1838    4.5527 O   0  0  0  0  0  0  0  0  0  0  0  0
   -2.8110   -0.1181    2.1869 C   0  0  0  0  0  0  0  0  0  0  0  0
   -1.8294   -0.4124    1.2128 C   0  0  0  0  0  0  0  0  0  0  0  0
   -2.1115   -0.2178   -0.1462 O   0  0  0  0  0  0  0  0  0  0  0  0
   -3.4176    0.0783   -0.6342 C   0  0  1  0  0  0  0  0  0  0  0  0
   -4.1309    1.0270    0.3458 C   0  0  1  0  0  0  0  0  0  0  0  0
   -5.4314    1.3355   -0.0920 O   0  0  0  0  0  0  0  0  0  0  0  0
   -4.1661    0.4031    1.7525 C   0  0  0  0  0  0  0  0  0  0  0  0
   -3.3127    0.6906   -2.0105 C   0  0  0  0  0  0  0  0  0  0  0  0
   -2.3850    1.7154   -2.2668 C   0  0  0  0  0  0  0  0  0  0  0  0
   -2.2962    2.2950   -3.5372 C   0  0  0  0  0  0  0  0  0  0  0  0
   -1.3579    3.3028   -3.7576 O   0  0  0  0  0  0  0  0  0  0  0  0
   -3.1482    1.8581   -4.5655 C   0  0  0  0  0  0  0  0  0  0  0  0
   -3.0645    2.4307   -5.8337 O   0  0  0  0  0  0  0  0  0  0  0  0
   -4.0835    0.8462   -4.3097 C   0  0  0  0  0  0  0  0  0  0  0  0
   -4.1684    0.2686   -3.0403 C   0  0  0  0  0  0  0  0  0  0  0  0
    0.0401   -1.2473   -0.4723 H   0  0  0  0  0  0  0  0  0  0  0  0
    1.7535    0.3595    1.5143 H   0  0  0  0  0  0  0  0  0  0  0  0
    0.6019    0.9724   -1.0362 H   0  0  0  0  0  0  0  0  0  0  0  0
    2.4948   -0.5338   -1.3330 H   0  0  0  0  0  0  0  0  0  0  0  0
    4.4414   -3.6618    1.0296 H   0  0  0  0  0  0  0  0  0  0  0  0
    2.9055   -6.8549    1.8899 H   0  0  0  0  0  0  0  0  0  0  0  0
    0.7335   -5.7680    1.4860 H   0  0  0  0  0  0  0  0  0  0  0  0
   -1.4076   -3.0681    0.4385 H   0  0  0  0  0  0  0  0  0  0  0  0
    3.2167    1.5105   -2.3276 H   0  0  0  0  0  0  0  0  0  0  0  0
    5.2735    4.4407   -2.7490 H   0  0  0  0  0  0  0  0  0  0  0  0
    6.4288    4.9061   -1.0263 H   0  0  0  0  0  0  0  0  0  0  0  0
    5.8642    2.6150    1.7161 H   0  0  0  0  0  0  0  0  0  0  0  0
    4.3683    0.6672    1.7377 H   0  0  0  0  0  0  0  0  0  0  0  0
    1.2363   -1.5410    4.3670 H   0  0  0  0  0  0  0  0  0  0  0  0
   -1.0354   -0.9397    4.9750 H   0  0  0  0  0  0  0  0  0  0  0  0
   -4.4501    0.0445    4.3673 H   0  0  0  0  0  0  0  0  0  0  0  0
   -3.9839   -0.8789   -0.6872 H   0  0  0  0  0  0  0  0  0  0  0  0
   -3.5546    1.9771    0.4063 H   0  0  0  0  0  0  0  0  0  0  0  0
   -5.9320    0.4820   -0.1761 H   0  0  0  0  0  0  0  0  0  0  0  0
   -4.8908   -0.4395    1.7778 H   0  0  0  0  0  0  0  0  0  0  0  0
   -4.5150    1.1916    2.4529 H   0  0  0  0  0  0  0  0  0  0  0  0
   -1.7302    2.0662   -1.4786 H   0  0  0  0  0  0  0  0  0  0  0  0
   -1.2543    3.7538   -4.6586 H   0  0  0  0  0  0  0  0  0  0  0  0
   -3.6683    2.1331   -6.5912 H   0  0  0  0  0  0  0  0  0  0  0  0
   -4.7473    0.5072   -5.0949 H   0  0  0  0  0  0  0  0  0  0  0  0
   -4.9022   -0.5076   -2.8616 H   0  0  0  0  0  0  0  0  0  0  0  0
  1  2  1  0
  2  3  1  0
  2  4  1  0
  4  5  1  0
  5  6  1  0
  6  7  2  0
  7  8  1  0
  8  9  1  0
  8 10  2  0
 10 11  1  0
 11 12  1  0
 11 13  2  0
  4 14  1  0
 14 15  2  0
 15 16  1  0
 16 17  1  0
 16 18  2  0
 18 19  1  0
 18 20  1  0
 20 21  2  0
  1 22  1  0
 22 23  2  0
 23 24  1  0
 23 25  1  0
 25 26  2  0
 26 27  1  0
 26 28  1  0
 28 29  2  0
 29 30  1  0
 30 31  1  0
 31 32  1  0
 32 33  1  0
 32 34  1  0
 31 35  1  0
 35 36  2  0
 36 37  1  0
 37 38  1  0
 37 39  2  0
 39 40  1  0
 39 41  1  0
 41 42  2  0
 13  1  1  0
 21 14  1  0
 29 22  1  0
 42 35  1  0
 13  6  1  0
 34 28  1  0
  1 43  1  6
  2 44  1  1
  3 45  1  0
  4 46  1  6
  7 47  1  0
  9 48  1  0
 10 49  1  0
 12 50  1  0
 15 51  1  0
 17 52  1  0
 19 53  1  0
 20 54  1  0
 21 55  1  0
 24 56  1  0
 25 57  1  0
 27 58  1  0
 31 59  1  6
 32 60  1  1
 33 61  1  0
 34 62  1  0
 34 63  1  0
 36 64  1  0
 38 65  1  0
 40 66  1  0
 41 67  1  0
 42 68  1  0
M  END
>  <LIG_ID>  (96) 
95

>  <_smiles>  (96) 
[H][C@@]1([C@H](O)[C@H](OC2=CC(O)=CC(O)=C12)C1=CC(O)=C(O)C=C1)C1=C(O)C=C(O)C2=C1O[C@@H]([C@@H](O)C2)C1=CC(O)=C(O)C=C1

>  <_name>  (96) 
Procyanidin dimer B3

>  <_molecular_weight>  (96) 
578.52

>  <_formula>  (96) 
C30H26O12

>  <_logP>  (96) 
2.995

>  <_molecular_wt_calculated>  (96) 
578.5260000000013

>  <_havy_atom_count>  (96) 
42

>  <_hydrogen_acceptors>  (96) 
12

>  <_hydrogen_donors>  (96) 
10

>  <_rotatable_bonds>  (96) 
13

>  <_amide_bonds>  (96) 
0

>  <_ring_count>  (96) 
6

$$$$
Procyanidin dimer B4
     RDKit          3D

 68 73  0  0  0  0  0  0  0  0999 V2000
    0.1812    1.1739   -1.8678 C   0  0  1  0  0  0  0  0  0  0  0  0
   -0.1508    2.0769   -0.6514 C   0  0  2  0  0  0  0  0  0  0  0  0
   -0.8939    3.1863   -1.0929 O   0  0  0  0  0  0  0  0  0  0  0  0
    1.1431    2.5488    0.0356 C   0  0  2  0  0  0  0  0  0  0  0  0
    1.9147    1.4166    0.4277 O   0  0  0  0  0  0  0  0  0  0  0  0
    2.0789    0.3096   -0.4075 C   0  0  0  0  0  0  0  0  0  0  0  0
    3.0327   -0.6547   -0.0722 C   0  0  0  0  0  0  0  0  0  0  0  0
    3.2521   -1.7516   -0.9105 C   0  0  0  0  0  0  0  0  0  0  0  0
    4.1878   -2.7267   -0.5730 O   0  0  0  0  0  0  0  0  0  0  0  0
    2.5358   -1.8661   -2.1033 C   0  0  0  0  0  0  0  0  0  0  0  0
    1.5711   -0.9092   -2.4494 C   0  0  0  0  0  0  0  0  0  0  0  0
    0.8936   -1.0236   -3.6633 O   0  0  0  0  0  0  0  0  0  0  0  0
    1.2890    0.1606   -1.5683 C   0  0  0  0  0  0  0  0  0  0  0  0
    0.8462    3.4003    1.2481 C   0  0  0  0  0  0  0  0  0  0  0  0
    0.9658    4.7983    1.1768 C   0  0  0  0  0  0  0  0  0  0  0  0
    0.6632    5.5969    2.2857 C   0  0  0  0  0  0  0  0  0  0  0  0
    0.7985    6.9808    2.1806 O   0  0  0  0  0  0  0  0  0  0  0  0
    0.2284    4.9986    3.4805 C   0  0  0  0  0  0  0  0  0  0  0  0
   -0.0732    5.7885    4.5888 O   0  0  0  0  0  0  0  0  0  0  0  0
    0.0972    3.6054    3.5518 C   0  0  0  0  0  0  0  0  0  0  0  0
    0.3990    2.8116    2.4430 C   0  0  0  0  0  0  0  0  0  0  0  0
   -1.1084    0.5077   -2.3521 C   0  0  0  0  0  0  0  0  0  0  0  0
   -1.7965    1.0181   -3.4713 C   0  0  0  0  0  0  0  0  0  0  0  0
   -1.3055    2.1310   -4.1546 O   0  0  0  0  0  0  0  0  0  0  0  0
   -2.9843    0.4152   -3.8998 C   0  0  0  0  0  0  0  0  0  0  0  0
   -3.5045   -0.6997   -3.2398 C   0  0  0  0  0  0  0  0  0  0  0  0
   -4.7115   -1.2308   -3.7005 O   0  0  0  0  0  0  0  0  0  0  0  0
   -2.8146   -1.2442   -2.1355 C   0  0  0  0  0  0  0  0  0  0  0  0
   -1.6522   -0.5994   -1.6626 C   0  0  0  0  0  0  0  0  0  0  0  0
   -1.0066   -1.0790   -0.5167 O   0  0  0  0  0  0  0  0  0  0  0  0
   -1.5331   -2.1154    0.3087 C   0  0  1  0  0  0  0  0  0  0  0  0
   -2.2167   -3.1675   -0.5867 C   0  0  2  0  0  0  0  0  0  0  0  0
   -1.2668   -3.7534   -1.4422 O   0  0  0  0  0  0  0  0  0  0  0  0
   -3.3165   -2.4842   -1.4226 C   0  0  0  0  0  0  0  0  0  0  0  0
   -0.4182   -2.6295    1.2066 C   0  0  0  0  0  0  0  0  0  0  0  0
    0.3411   -1.6875    1.9220 C   0  0  0  0  0  0  0  0  0  0  0  0
    1.3972   -2.0799    2.7515 C   0  0  0  0  0  0  0  0  0  0  0  0
    2.1148   -1.0793    3.4099 O   0  0  0  0  0  0  0  0  0  0  0  0
    1.6974   -3.4537    2.8908 C   0  0  0  0  0  0  0  0  0  0  0  0
    2.7414   -3.9212    3.6915 O   0  0  0  0  0  0  0  0  0  0  0  0
    0.9244   -4.3967    2.2066 C   0  0  0  0  0  0  0  0  0  0  0  0
   -0.1270   -3.9964    1.3793 C   0  0  0  0  0  0  0  0  0  0  0  0
    0.5945    1.8270   -2.6671 H   0  0  0  0  0  0  0  0  0  0  0  0
   -0.7437    1.4843    0.0867 H   0  0  0  0  0  0  0  0  0  0  0  0
   -1.4703    3.4719   -0.3367 H   0  0  0  0  0  0  0  0  0  0  0  0
    1.7427    3.1342   -0.6976 H   0  0  0  0  0  0  0  0  0  0  0  0
    3.6074   -0.5457    0.8389 H   0  0  0  0  0  0  0  0  0  0  0  0
    4.7205   -2.6739    0.2875 H   0  0  0  0  0  0  0  0  0  0  0  0
    2.7301   -2.7019   -2.7637 H   0  0  0  0  0  0  0  0  0  0  0  0
    1.0754   -1.7863   -4.3050 H   0  0  0  0  0  0  0  0  0  0  0  0
    1.2914    5.2712    0.2583 H   0  0  0  0  0  0  0  0  0  0  0  0
    0.5915    7.6020    2.9535 H   0  0  0  0  0  0  0  0  0  0  0  0
   -0.3891    5.3805    5.4610 H   0  0  0  0  0  0  0  0  0  0  0  0
   -0.2422    3.1363    4.4666 H   0  0  0  0  0  0  0  0  0  0  0  0
    0.2827    1.7381    2.5162 H   0  0  0  0  0  0  0  0  0  0  0  0
   -1.7852    2.5166   -4.9596 H   0  0  0  0  0  0  0  0  0  0  0  0
   -3.5150    0.8218   -4.7518 H   0  0  0  0  0  0  0  0  0  0  0  0
   -5.2024   -1.9824   -3.2345 H   0  0  0  0  0  0  0  0  0  0  0  0
   -2.3104   -1.6716    0.9698 H   0  0  0  0  0  0  0  0  0  0  0  0
   -2.6953   -3.9431    0.0555 H   0  0  0  0  0  0  0  0  0  0  0  0
   -1.6619   -4.6033   -1.7693 H   0  0  0  0  0  0  0  0  0  0  0  0
   -4.1605   -2.1961   -0.7591 H   0  0  0  0  0  0  0  0  0  0  0  0
   -3.6922   -3.2265   -2.1585 H   0  0  0  0  0  0  0  0  0  0  0  0
    0.1190   -0.6321    1.8245 H   0  0  0  0  0  0  0  0  0  0  0  0
    2.8933   -1.2564    4.0280 H   0  0  0  0  0  0  0  0  0  0  0  0
    3.3602   -3.3220    4.2185 H   0  0  0  0  0  0  0  0  0  0  0  0
    1.1417   -5.4518    2.3168 H   0  0  0  0  0  0  0  0  0  0  0  0
   -0.6963   -4.7662    0.8794 H   0  0  0  0  0  0  0  0  0  0  0  0
  1  2  1  0
  2  3  1  0
  2  4  1  0
  4  5  1  0
  5  6  1  0
  6  7  2  0
  7  8  1  0
  8  9  1  0
  8 10  2  0
 10 11  1  0
 11 12  1  0
 11 13  2  0
  4 14  1  0
 14 15  2  0
 15 16  1  0
 16 17  1  0
 16 18  2  0
 18 19  1  0
 18 20  1  0
 20 21  2  0
  1 22  1  0
 22 23  2  0
 23 24  1  0
 23 25  1  0
 25 26  2  0
 26 27  1  0
 26 28  1  0
 28 29  2  0
 29 30  1  0
 30 31  1  0
 31 32  1  0
 32 33  1  0
 32 34  1  0
 31 35  1  0
 35 36  2  0
 36 37  1  0
 37 38  1  0
 37 39  2  0
 39 40  1  0
 39 41  1  0
 41 42  2  0
 13  1  1  0
 21 14  1  0
 29 22  1  0
 42 35  1  0
 13  6  1  0
 34 28  1  0
  1 43  1  6
  2 44  1  1
  3 45  1  0
  4 46  1  6
  7 47  1  0
  9 48  1  0
 10 49  1  0
 12 50  1  0
 15 51  1  0
 17 52  1  0
 19 53  1  0
 20 54  1  0
 21 55  1  0
 24 56  1  0
 25 57  1  0
 27 58  1  0
 31 59  1  1
 32 60  1  1
 33 61  1  0
 34 62  1  0
 34 63  1  0
 36 64  1  0
 38 65  1  0
 40 66  1  0
 41 67  1  0
 42 68  1  0
M  END
>  <LIG_ID>  (97) 
96

>  <_smiles>  (97) 
[H][C@@]1([C@H](O)[C@H](OC2=CC(O)=CC(O)=C12)C1=CC(O)=C(O)C=C1)C1=C(O)C=C(O)C2=C1O[C@@H]([C@H](O)C2)C1=CC(O)=C(O)C=C1

>  <_name>  (97) 
Procyanidin dimer B4

>  <_molecular_weight>  (97) 
578.52

>  <_formula>  (97) 
C30H26O12

>  <_logP>  (97) 
2.995

>  <_molecular_wt_calculated>  (97) 
578.5260000000013

>  <_havy_atom_count>  (97) 
42

>  <_hydrogen_acceptors>  (97) 
12

>  <_hydrogen_donors>  (97) 
10

>  <_rotatable_bonds>  (97) 
13

>  <_amide_bonds>  (97) 
0

>  <_ring_count>  (97) 
6

$$$$
Procyanidin dimer B5
     RDKit          3D

 68 73  0  0  0  0  0  0  0  0999 V2000
   -1.6026   -0.1371   -0.8367 C   0  0  2  0  0  0  0  0  0  0  0  0
   -2.3205   -0.0829    0.5380 C   0  0  2  0  0  0  0  0  0  0  0  0
   -2.2375   -1.3315    1.1789 O   0  0  0  0  0  0  0  0  0  0  0  0
   -3.8054    0.2942    0.3704 C   0  0  2  0  0  0  0  0  0  0  0  0
   -4.4363   -0.5971   -0.5525 O   0  0  0  0  0  0  0  0  0  0  0  0
   -3.7873   -1.1168   -1.6800 C   0  0  0  0  0  0  0  0  0  0  0  0
   -4.5380   -1.8320   -2.6169 C   0  0  0  0  0  0  0  0  0  0  0  0
   -3.9491   -2.2737   -3.8055 C   0  0  0  0  0  0  0  0  0  0  0  0
   -4.6922   -2.9854   -4.7447 O   0  0  0  0  0  0  0  0  0  0  0  0
   -2.6088   -1.9829   -4.0642 C   0  0  0  0  0  0  0  0  0  0  0  0
   -1.8398   -1.2767   -3.1286 C   0  0  0  0  0  0  0  0  0  0  0  0
   -0.5200   -0.9459   -3.4360 O   0  0  0  0  0  0  0  0  0  0  0  0
   -2.4071   -0.8978   -1.8888 C   0  0  0  0  0  0  0  0  0  0  0  0
   -3.9787    1.7520   -0.0237 C   0  0  0  0  0  0  0  0  0  0  0  0
   -3.8296    2.7439    0.9601 C   0  0  0  0  0  0  0  0  0  0  0  0
   -3.9445    4.1029    0.6436 C   0  0  0  0  0  0  0  0  0  0  0  0
   -3.7845    5.0288    1.6765 O   0  0  0  0  0  0  0  0  0  0  0  0
   -4.2122    4.4861   -0.6909 C   0  0  0  0  0  0  0  0  0  0  0  0
   -4.3416    5.8202   -1.0824 O   0  0  0  0  0  0  0  0  0  0  0  0
   -4.3552    3.4999   -1.6719 C   0  0  0  0  0  0  0  0  0  0  0  0
   -4.2383    2.1473   -1.3479 C   0  0  0  0  0  0  0  0  0  0  0  0
   -0.1693   -0.6472   -0.6498 C   0  0  0  0  0  0  0  0  0  0  0  0
    0.8881    0.2821   -0.4953 C   0  0  0  0  0  0  0  0  0  0  0  0
    0.5931    1.6502   -0.4993 O   0  0  0  0  0  0  0  0  0  0  0  0
    2.2175   -0.1731   -0.3274 C   0  0  0  0  0  0  0  0  0  0  0  0
    2.4657   -1.5564   -0.2203 C   0  0  0  0  0  0  0  0  0  0  0  0
    3.7618   -2.0359    0.0078 O   0  0  0  0  0  0  0  0  0  0  0  0
    4.8229   -1.1813    0.4367 C   0  0  1  0  0  0  0  0  0  0  0  0
    4.7423    0.1131   -0.4017 C   0  0  2  0  0  0  0  0  0  0  0  0
    5.8067    0.9798   -0.1098 O   0  0  0  0  0  0  0  0  0  0  0  0
    3.3740    0.8038   -0.2259 C   0  0  0  0  0  0  0  0  0  0  0  0
    4.7683   -1.0510    1.9608 C   0  0  0  0  0  0  0  0  0  0  0  0
    4.5727   -2.2261    2.7135 C   0  0  0  0  0  0  0  0  0  0  0  0
    4.5379   -2.1958    4.1114 C   0  0  0  0  0  0  0  0  0  0  0  0
    4.3258   -3.3842    4.8098 O   0  0  0  0  0  0  0  0  0  0  0  0
    4.7180   -0.9806    4.7873 C   0  0  0  0  0  0  0  0  0  0  0  0
    4.6809   -0.9414    6.1803 O   0  0  0  0  0  0  0  0  0  0  0  0
    4.9398    0.1906    4.0554 C   0  0  0  0  0  0  0  0  0  0  0  0
    4.9757    0.1584    2.6589 C   0  0  0  0  0  0  0  0  0  0  0  0
    1.4230   -2.4690   -0.3472 C   0  0  0  0  0  0  0  0  0  0  0  0
    0.1126   -2.0315   -0.5550 C   0  0  0  0  0  0  0  0  0  0  0  0
   -0.9102   -2.9749   -0.6605 O   0  0  0  0  0  0  0  0  0  0  0  0
   -1.5648    0.9034   -1.2241 H   0  0  0  0  0  0  0  0  0  0  0  0
   -1.8096    0.6860    1.1659 H   0  0  0  0  0  0  0  0  0  0  0  0
   -2.3910   -1.1713    2.1468 H   0  0  0  0  0  0  0  0  0  0  0  0
   -4.3130    0.1571    1.3506 H   0  0  0  0  0  0  0  0  0  0  0  0
   -5.5885   -2.0181   -2.4316 H   0  0  0  0  0  0  0  0  0  0  0  0
   -5.6687   -3.2073   -4.5896 H   0  0  0  0  0  0  0  0  0  0  0  0
   -2.1665   -2.2973   -5.0013 H   0  0  0  0  0  0  0  0  0  0  0  0
   -0.0960   -1.2089   -4.3179 H   0  0  0  0  0  0  0  0  0  0  0  0
   -3.6173    2.4593    1.9839 H   0  0  0  0  0  0  0  0  0  0  0  0
   -3.8453    6.0291    1.5527 H   0  0  0  0  0  0  0  0  0  0  0  0
   -4.2579    6.6043   -0.4517 H   0  0  0  0  0  0  0  0  0  0  0  0
   -4.5574    3.7854   -2.6967 H   0  0  0  0  0  0  0  0  0  0  0  0
   -4.3522    1.4216   -2.1394 H   0  0  0  0  0  0  0  0  0  0  0  0
    1.2789    2.3724   -0.3232 H   0  0  0  0  0  0  0  0  0  0  0  0
    5.7833   -1.6834    0.1899 H   0  0  0  0  0  0  0  0  0  0  0  0
    4.8277   -0.1955   -1.4712 H   0  0  0  0  0  0  0  0  0  0  0  0
    5.8172    1.6715   -0.8220 H   0  0  0  0  0  0  0  0  0  0  0  0
    3.2826    1.5696   -1.0259 H   0  0  0  0  0  0  0  0  0  0  0  0
    3.3178    1.3217    0.7531 H   0  0  0  0  0  0  0  0  0  0  0  0
    4.4453   -3.1781    2.2122 H   0  0  0  0  0  0  0  0  0  0  0  0
    4.2929   -3.4154    5.8217 H   0  0  0  0  0  0  0  0  0  0  0  0
    4.8097   -0.0754    6.6906 H   0  0  0  0  0  0  0  0  0  0  0  0
    5.0894    1.1315    4.5700 H   0  0  0  0  0  0  0  0  0  0  0  0
    5.1605    1.0904    2.1531 H   0  0  0  0  0  0  0  0  0  0  0  0
    1.6329   -3.5286   -0.2698 H   0  0  0  0  0  0  0  0  0  0  0  0
   -0.7285   -3.9696   -0.5954 H   0  0  0  0  0  0  0  0  0  0  0  0
  1  2  1  0
  2  3  1  0
  2  4  1  0
  4  5  1  0
  5  6  1  0
  6  7  2  0
  7  8  1  0
  8  9  1  0
  8 10  2  0
 10 11  1  0
 11 12  1  0
 11 13  2  0
  4 14  1  0
 14 15  2  0
 15 16  1  0
 16 17  1  0
 16 18  2  0
 18 19  1  0
 18 20  1  0
 20 21  2  0
  1 22  1  0
 22 23  2  0
 23 24  1  0
 23 25  1  0
 25 26  2  0
 26 27  1  0
 27 28  1  0
 28 29  1  0
 29 30  1  0
 29 31  1  0
 28 32  1  0
 32 33  2  0
 33 34  1  0
 34 35  1  0
 34 36  2  0
 36 37  1  0
 36 38  1  0
 38 39  2  0
 26 40  1  0
 40 41  2  0
 41 42  1  0
 13  1  1  0
 21 14  1  0
 41 22  1  0
 13  6  1  0
 31 25  1  0
 39 32  1  0
  1 43  1  6
  2 44  1  1
  3 45  1  0
  4 46  1  1
  7 47  1  0
  9 48  1  0
 10 49  1  0
 12 50  1  0
 15 51  1  0
 17 52  1  0
 19 53  1  0
 20 54  1  0
 21 55  1  0
 24 56  1  0
 28 57  1  1
 29 58  1  6
 30 59  1  0
 31 60  1  0
 31 61  1  0
 33 62  1  0
 35 63  1  0
 37 64  1  0
 38 65  1  0
 39 66  1  0
 40 67  1  0
 42 68  1  0
M  END
>  <LIG_ID>  (98) 
97

>  <_smiles>  (98) 
[H][C@]1([C@H](O)[C@H](OC2=CC(O)=CC(O)=C12)C1=CC(O)=C(O)C=C1)C1=C(O)C2=C(O[C@@H]([C@H](O)C2)C2=CC(O)=C(O)C=C2)C=C1O

>  <_name>  (98) 
Procyanidin dimer B5

>  <_molecular_weight>  (98) 
578.52

>  <_formula>  (98) 
C30H26O12

>  <_logP>  (98) 
2.9950000000000014

>  <_molecular_wt_calculated>  (98) 
578.5260000000013

>  <_havy_atom_count>  (98) 
42

>  <_hydrogen_acceptors>  (98) 
12

>  <_hydrogen_donors>  (98) 
10

>  <_rotatable_bonds>  (98) 
13

>  <_amide_bonds>  (98) 
0

>  <_ring_count>  (98) 
6

$$$$
Procyanidin dimer B7
     RDKit          3D

 68 73  0  0  0  0  0  0  0  0999 V2000
   -1.9973   -1.0204    0.1515 C   0  0  1  0  0  0  0  0  0  0  0  0
   -2.8423    0.2132    0.5739 C   0  0  2  0  0  0  0  0  0  0  0  0
   -2.5571    0.5516    1.9085 O   0  0  0  0  0  0  0  0  0  0  0  0
   -4.3423   -0.0905    0.4380 C   0  0  2  0  0  0  0  0  0  0  0  0
   -4.6304   -0.4896   -0.8994 O   0  0  0  0  0  0  0  0  0  0  0  0
   -3.8139   -1.3863   -1.5916 C   0  0  0  0  0  0  0  0  0  0  0  0
   -4.2927   -1.9683   -2.7684 C   0  0  0  0  0  0  0  0  0  0  0  0
   -3.5291   -2.9259   -3.4433 C   0  0  0  0  0  0  0  0  0  0  0  0
   -4.0011   -3.5138   -4.6147 O   0  0  0  0  0  0  0  0  0  0  0  0
   -2.2877   -3.3084   -2.9319 C   0  0  0  0  0  0  0  0  0  0  0  0
   -1.7882   -2.7211   -1.7608 C   0  0  0  0  0  0  0  0  0  0  0  0
   -0.5642   -3.1484   -1.2458 O   0  0  0  0  0  0  0  0  0  0  0  0
   -2.5270   -1.7071   -1.1076 C   0  0  0  0  0  0  0  0  0  0  0  0
   -5.1795    1.1147    0.7992 C   0  0  0  0  0  0  0  0  0  0  0  0
   -5.8126    1.1869    2.0512 C   0  0  0  0  0  0  0  0  0  0  0  0
   -6.5664    2.3158    2.4044 C   0  0  0  0  0  0  0  0  0  0  0  0
   -7.1961    2.3767    3.6466 O   0  0  0  0  0  0  0  0  0  0  0  0
   -6.6835    3.3872    1.5027 C   0  0  0  0  0  0  0  0  0  0  0  0
   -7.4267    4.5225    1.8240 O   0  0  0  0  0  0  0  0  0  0  0  0
   -6.0444    3.3221    0.2608 C   0  0  0  0  0  0  0  0  0  0  0  0
   -5.2934    2.1974   -0.0892 C   0  0  0  0  0  0  0  0  0  0  0  0
   -0.5322   -0.6022    0.0111 C   0  0  0  0  0  0  0  0  0  0  0  0
    0.4061   -0.9474    1.0134 C   0  0  0  0  0  0  0  0  0  0  0  0
   -0.0364   -1.6439    2.1434 O   0  0  0  0  0  0  0  0  0  0  0  0
    1.7656   -0.5784    0.8711 C   0  0  0  0  0  0  0  0  0  0  0  0
    2.1535    0.2188   -0.2245 C   0  0  0  0  0  0  0  0  0  0  0  0
    3.4777    0.6480   -0.3660 O   0  0  0  0  0  0  0  0  0  0  0  0
    4.4380    0.5084    0.6799 C   0  0  1  0  0  0  0  0  0  0  0  0
    4.2524   -0.8444    1.3944 C   0  0  2  0  0  0  0  0  0  0  0  0
    4.6013   -1.9260    0.5625 O   0  0  0  0  0  0  0  0  0  0  0  0
    2.8025   -0.9847    1.9020 C   0  0  0  0  0  0  0  0  0  0  0  0
    5.8411    0.6634    0.1392 C   0  0  0  0  0  0  0  0  0  0  0  0
    6.1841    0.1768   -1.1351 C   0  0  0  0  0  0  0  0  0  0  0  0
    7.4942    0.2928   -1.6135 C   0  0  0  0  0  0  0  0  0  0  0  0
    7.7964   -0.1937   -2.8849 O   0  0  0  0  0  0  0  0  0  0  0  0
    8.4808    0.8910   -0.8117 C   0  0  0  0  0  0  0  0  0  0  0  0
    9.7872    1.0111   -1.2831 O   0  0  0  0  0  0  0  0  0  0  0  0
    8.1463    1.3630    0.4645 C   0  0  0  0  0  0  0  0  0  0  0  0
    6.8378    1.2448    0.9393 C   0  0  0  0  0  0  0  0  0  0  0  0
    1.2242    0.5769   -1.1970 C   0  0  0  0  0  0  0  0  0  0  0  0
   -0.1092    0.1746   -1.0917 C   0  0  0  0  0  0  0  0  0  0  0  0
   -1.0176    0.5522   -2.0814 O   0  0  0  0  0  0  0  0  0  0  0  0
   -2.1058   -1.7805    0.9549 H   0  0  0  0  0  0  0  0  0  0  0  0
   -2.6118    1.0763   -0.0948 H   0  0  0  0  0  0  0  0  0  0  0  0
   -1.7372    1.1111    1.8968 H   0  0  0  0  0  0  0  0  0  0  0  0
   -4.5967   -0.9408    1.1108 H   0  0  0  0  0  0  0  0  0  0  0  0
   -5.2698   -1.6915   -3.1440 H   0  0  0  0  0  0  0  0  0  0  0  0
   -4.8997   -3.2612   -5.0094 H   0  0  0  0  0  0  0  0  0  0  0  0
   -1.7118   -4.0695   -3.4436 H   0  0  0  0  0  0  0  0  0  0  0  0
   -0.0184   -3.8716   -1.6992 H   0  0  0  0  0  0  0  0  0  0  0  0
   -5.7191    0.3683    2.7543 H   0  0  0  0  0  0  0  0  0  0  0  0
   -7.1266    1.6181    4.3149 H   0  0  0  0  0  0  0  0  0  0  0  0
   -7.9074    4.6178    2.7105 H   0  0  0  0  0  0  0  0  0  0  0  0
   -6.1275    4.1479   -0.4344 H   0  0  0  0  0  0  0  0  0  0  0  0
   -4.7988    2.1714   -1.0523 H   0  0  0  0  0  0  0  0  0  0  0  0
    0.5493   -1.8489    2.9418 H   0  0  0  0  0  0  0  0  0  0  0  0
    4.2454    1.3188    1.4188 H   0  0  0  0  0  0  0  0  0  0  0  0
    4.9272   -0.8704    2.2781 H   0  0  0  0  0  0  0  0  0  0  0  0
    3.9797   -1.9327   -0.2109 H   0  0  0  0  0  0  0  0  0  0  0  0
    2.6515   -2.0439    2.2016 H   0  0  0  0  0  0  0  0  0  0  0  0
    2.6690   -0.3461    2.8022 H   0  0  0  0  0  0  0  0  0  0  0  0
    5.4361   -0.2965   -1.7592 H   0  0  0  0  0  0  0  0  0  0  0  0
    8.7289   -0.1347   -3.2760 H   0  0  0  0  0  0  0  0  0  0  0  0
   10.5162    1.4377   -0.7233 H   0  0  0  0  0  0  0  0  0  0  0  0
    8.9017    1.8189    1.0918 H   0  0  0  0  0  0  0  0  0  0  0  0
    6.6018    1.6061    1.9327 H   0  0  0  0  0  0  0  0  0  0  0  0
    1.5420    1.1780   -2.0398 H   0  0  0  0  0  0  0  0  0  0  0  0
   -0.7365    1.1089   -2.8799 H   0  0  0  0  0  0  0  0  0  0  0  0
  1  2  1  0
  2  3  1  0
  2  4  1  0
  4  5  1  0
  5  6  1  0
  6  7  2  0
  7  8  1  0
  8  9  1  0
  8 10  2  0
 10 11  1  0
 11 12  1  0
 11 13  2  0
  4 14  1  0
 14 15  2  0
 15 16  1  0
 16 17  1  0
 16 18  2  0
 18 19  1  0
 18 20  1  0
 20 21  2  0
  1 22  1  0
 22 23  2  0
 23 24  1  0
 23 25  1  0
 25 26  2  0
 26 27  1  0
 27 28  1  0
 28 29  1  0
 29 30  1  0
 29 31  1  0
 28 32  1  0
 32 33  2  0
 33 34  1  0
 34 35  1  0
 34 36  2  0
 36 37  1  0
 36 38  1  0
 38 39  2  0
 26 40  1  0
 40 41  2  0
 41 42  1  0
 13  1  1  0
 21 14  1  0
 41 22  1  0
 13  6  1  0
 31 25  1  0
 39 32  1  0
  1 43  1  1
  2 44  1  6
  3 45  1  0
  4 46  1  1
  7 47  1  0
  9 48  1  0
 10 49  1  0
 12 50  1  0
 15 51  1  0
 17 52  1  0
 19 53  1  0
 20 54  1  0
 21 55  1  0
 24 56  1  0
 28 57  1  1
 29 58  1  1
 30 59  1  0
 31 60  1  0
 31 61  1  0
 33 62  1  0
 35 63  1  0
 37 64  1  0
 38 65  1  0
 39 66  1  0
 40 67  1  0
 42 68  1  0
M  END
>  <LIG_ID>  (99) 
98

>  <_smiles>  (99) 
[H][C@@]1([C@H](O)[C@H](OC2=CC(O)=CC(O)=C12)C1=CC(O)=C(O)C=C1)C1=C(O)C2=C(O[C@@H]([C@H](O)C2)C2=CC(O)=C(O)C=C2)C=C1O

>  <_name>  (99) 
Procyanidin dimer B7

>  <_molecular_weight>  (99) 
578.52

>  <_formula>  (99) 
C30H26O12

>  <_logP>  (99) 
2.9950000000000014

>  <_molecular_wt_calculated>  (99) 
578.5260000000013

>  <_havy_atom_count>  (99) 
42

>  <_hydrogen_acceptors>  (99) 
12

>  <_hydrogen_donors>  (99) 
10

>  <_rotatable_bonds>  (99) 
13

>  <_amide_bonds>  (99) 
0

>  <_ring_count>  (99) 
6

$$$$
Prodelphinidin dimer B3
     RDKit          3D

 70 75  0  0  0  0  0  0  0  0999 V2000
    5.2647   -1.0028   -0.4323 O   0  0  0  0  0  0  0  0  0  0  0  0
    3.9878   -1.2415    0.1007 C   0  0  0  0  0  0  0  0  0  0  0  0
    3.6859   -2.7499    0.0773 C   0  0  0  0  0  0  0  0  0  0  0  0
    2.2513   -3.0412    0.4548 C   0  0  0  0  0  0  0  0  0  0  0  0
    1.8874   -4.2991    0.9617 C   0  0  0  0  0  0  0  0  0  0  0  0
    2.8505   -5.2949    1.1252 O   0  0  0  0  0  0  0  0  0  0  0  0
    0.5565   -4.5514    1.3096 C   0  0  0  0  0  0  0  0  0  0  0  0
   -0.4260   -3.5688    1.1402 C   0  0  0  0  0  0  0  0  0  0  0  0
   -1.7386   -3.8366    1.5300 O   0  0  0  0  0  0  0  0  0  0  0  0
   -0.0865   -2.3174    0.5783 C   0  0  0  0  0  0  0  0  0  0  0  0
   -1.1298   -1.2152    0.3987 C   0  0  0  0  0  0  0  0  0  0  0  0
   -1.4038   -0.5464    1.7698 C   0  0  0  0  0  0  0  0  0  0  0  0
   -0.2474    0.0714    2.2737 O   0  0  0  0  0  0  0  0  0  0  0  0
   -2.5956    0.4354    1.6780 C   0  0  0  0  0  0  0  0  0  0  0  0
   -3.7339   -0.3236    1.2656 O   0  0  0  0  0  0  0  0  0  0  0  0
   -3.6665   -1.2478    0.2153 C   0  0  0  0  0  0  0  0  0  0  0  0
   -4.8538   -1.7105   -0.3574 C   0  0  0  0  0  0  0  0  0  0  0  0
   -4.8172   -2.5738   -1.4572 C   0  0  0  0  0  0  0  0  0  0  0  0
   -5.9969   -3.0354   -2.0368 O   0  0  0  0  0  0  0  0  0  0  0  0
   -3.5878   -2.9665   -1.9905 C   0  0  0  0  0  0  0  0  0  0  0  0
   -2.3879   -2.5227   -1.4168 C   0  0  0  0  0  0  0  0  0  0  0  0
   -1.1719   -2.8924   -1.9918 O   0  0  0  0  0  0  0  0  0  0  0  0
   -2.4166   -1.7012   -0.2671 C   0  0  0  0  0  0  0  0  0  0  0  0
   -2.4420    1.6523    0.7589 C   0  0  0  0  0  0  0  0  0  0  0  0
   -1.1996    2.1576    0.3245 C   0  0  0  0  0  0  0  0  0  0  0  0
   -1.1276    3.2893   -0.4925 C   0  0  0  0  0  0  0  0  0  0  0  0
    0.1267    3.7280   -0.9180 O   0  0  0  0  0  0  0  0  0  0  0  0
   -2.2981    3.9659   -0.8737 C   0  0  0  0  0  0  0  0  0  0  0  0
   -2.1799    5.0877   -1.6986 O   0  0  0  0  0  0  0  0  0  0  0  0
   -3.5488    3.4963   -0.4130 C   0  0  0  0  0  0  0  0  0  0  0  0
   -4.7549    4.1258   -0.7292 O   0  0  0  0  0  0  0  0  0  0  0  0
   -3.6039    2.3580    0.3980 C   0  0  0  0  0  0  0  0  0  0  0  0
    1.2614   -2.0599    0.2474 C   0  0  0  0  0  0  0  0  0  0  0  0
    1.6221   -0.8039   -0.2573 O   0  0  0  0  0  0  0  0  0  0  0  0
    2.9314   -0.4940   -0.7313 C   0  0  0  0  0  0  0  0  0  0  0  0
    3.1374    1.0011   -0.6664 C   0  0  0  0  0  0  0  0  0  0  0  0
    2.7850    1.7165    0.4873 C   0  0  0  0  0  0  0  0  0  0  0  0
    2.9661    3.0999    0.5511 C   0  0  0  0  0  0  0  0  0  0  0  0
    2.5856    3.7721    1.7127 O   0  0  0  0  0  0  0  0  0  0  0  0
    3.5175    3.7930   -0.5425 C   0  0  0  0  0  0  0  0  0  0  0  0
    3.6744    5.1777   -0.4407 O   0  0  0  0  0  0  0  0  0  0  0  0
    3.8915    3.0736   -1.7037 C   0  0  0  0  0  0  0  0  0  0  0  0
    4.4531    3.6888   -2.8248 O   0  0  0  0  0  0  0  0  0  0  0  0
    3.6997    1.6880   -1.7512 C   0  0  0  0  0  0  0  0  0  0  0  0
    5.9194   -1.2699    0.2647 H   0  0  0  0  0  0  0  0  0  0  0  0
    3.9415   -0.8804    1.1558 H   0  0  0  0  0  0  0  0  0  0  0  0
    3.8733   -3.1545   -0.9412 H   0  0  0  0  0  0  0  0  0  0  0  0
    4.3781   -3.2570    0.7840 H   0  0  0  0  0  0  0  0  0  0  0  0
    2.6129   -6.2097    1.4907 H   0  0  0  0  0  0  0  0  0  0  0  0
    0.2847   -5.5156    1.7207 H   0  0  0  0  0  0  0  0  0  0  0  0
   -2.0041   -4.7275    1.9331 H   0  0  0  0  0  0  0  0  0  0  0  0
   -0.7353   -0.4444   -0.2928 H   0  0  0  0  0  0  0  0  0  0  0  0
   -1.7055   -1.3496    2.4836 H   0  0  0  0  0  0  0  0  0  0  0  0
   -0.4240    0.2795    3.2282 H   0  0  0  0  0  0  0  0  0  0  0  0
   -2.8002    0.8235    2.6990 H   0  0  0  0  0  0  0  0  0  0  0  0
   -5.8049   -1.3775    0.0388 H   0  0  0  0  0  0  0  0  0  0  0  0
   -6.9049   -2.7657   -1.6767 H   0  0  0  0  0  0  0  0  0  0  0  0
   -3.5656   -3.6135   -2.8584 H   0  0  0  0  0  0  0  0  0  0  0  0
   -1.1290   -3.4813   -2.8152 H   0  0  0  0  0  0  0  0  0  0  0  0
   -0.2685    1.6883    0.5902 H   0  0  0  0  0  0  0  0  0  0  0  0
    0.2459    4.5417   -1.5091 H   0  0  0  0  0  0  0  0  0  0  0  0
   -2.9624    5.6284   -2.0371 H   0  0  0  0  0  0  0  0  0  0  0  0
   -4.8283    4.9607   -1.2920 H   0  0  0  0  0  0  0  0  0  0  0  0
   -4.5720    2.0232    0.7511 H   0  0  0  0  0  0  0  0  0  0  0  0
    3.0003   -0.8407   -1.7872 H   0  0  0  0  0  0  0  0  0  0  0  0
    2.3596    1.1995    1.3391 H   0  0  0  0  0  0  0  0  0  0  0  0
    2.6873    4.7744    1.8159 H   0  0  0  0  0  0  0  0  0  0  0  0
    4.0485    5.7619   -1.1742 H   0  0  0  0  0  0  0  0  0  0  0  0
    4.6423    4.6781   -2.8934 H   0  0  0  0  0  0  0  0  0  0  0  0
    3.9899    1.1464   -2.6435 H   0  0  0  0  0  0  0  0  0  0  0  0
  1  2  1  0
  2  3  1  0
  3  4  1  0
  4  5  2  0
  5  6  1  0
  5  7  1  0
  7  8  2  0
  8  9  1  0
  8 10  1  0
 10 11  1  0
 11 12  1  0
 12 13  1  0
 12 14  1  0
 14 15  1  0
 15 16  1  0
 16 17  2  0
 17 18  1  0
 18 19  1  0
 18 20  2  0
 20 21  1  0
 21 22  1  0
 21 23  2  0
 14 24  1  0
 24 25  2  0
 25 26  1  0
 26 27  1  0
 26 28  2  0
 28 29  1  0
 28 30  1  0
 30 31  1  0
 30 32  2  0
 10 33  2  0
 33 34  1  0
 34 35  1  0
 35 36  1  0
 36 37  2  0
 37 38  1  0
 38 39  1  0
 38 40  2  0
 40 41  1  0
 40 42  1  0
 42 43  1  0
 42 44  2  0
 35  2  1  0
 44 36  1  0
 33  4  1  0
 23 11  1  0
 32 24  1  0
 23 16  1  0
  1 45  1  0
  2 46  1  0
  3 47  1  0
  3 48  1  0
  6 49  1  0
  7 50  1  0
  9 51  1  0
 11 52  1  0
 12 53  1  0
 13 54  1  0
 14 55  1  0
 17 56  1  0
 19 57  1  0
 20 58  1  0
 22 59  1  0
 25 60  1  0
 27 61  1  0
 29 62  1  0
 31 63  1  0
 32 64  1  0
 35 65  1  0
 37 66  1  0
 39 67  1  0
 41 68  1  0
 43 69  1  0
 44 70  1  0
M  END
>  <LIG_ID>  (100) 
99

>  <_smiles>  (100) 
OC1CC2=C(O)C=C(O)C(C3C(O)C(OC4=CC(O)=CC(O)=C34)C3=CC(O)=C(O)C(O)=C3)=C2OC1C1=CC(O)=C(O)C(O)=C1

>  <_name>  (100) 
Prodelphinidin dimer B3

>  <_molecular_weight>  (100) 
610.519

>  <_formula>  (100) 
C30H26O14

>  <_logP>  (100) 
2.4062

>  <_molecular_wt_calculated>  (100) 
610.5240000000014

>  <_havy_atom_count>  (100) 
44

>  <_hydrogen_acceptors>  (100) 
14

>  <_hydrogen_donors>  (100) 
12

>  <_rotatable_bonds>  (100) 
15

>  <_amide_bonds>  (100) 
0

>  <_ring_count>  (100) 
6

$$$$
Procyanidin trimer C1
     RDKit          3D

101109  0  0  0  0  0  0  0  0999 V2000
   -3.2078    0.8443   -1.5148 C   0  0  2  0  0  0  0  0  0  0  0  0
   -3.9950    0.9676   -0.1857 C   0  0  1  0  0  0  0  0  0  0  0  0
   -4.0369    2.3132    0.2183 O   0  0  0  0  0  0  0  0  0  0  0  0
   -5.4197    0.3885   -0.3027 C   0  0  2  0  0  0  0  0  0  0  0  0
   -5.3676   -0.9481   -0.8037 O   0  0  0  0  0  0  0  0  0  0  0  0
   -4.4321   -1.3739   -1.7538 C   0  0  0  0  0  0  0  0  0  0  0  0
   -4.5698   -2.6494   -2.3078 C   0  0  0  0  0  0  0  0  0  0  0  0
   -3.7164   -3.0732   -3.3271 C   0  0  0  0  0  0  0  0  0  0  0  0
   -3.8691   -4.3487   -3.8659 O   0  0  0  0  0  0  0  0  0  0  0  0
   -2.7289   -2.2083   -3.8101 C   0  0  0  0  0  0  0  0  0  0  0  0
   -2.5721   -0.9302   -3.2568 C   0  0  0  0  0  0  0  0  0  0  0  0
   -1.6183   -0.0632   -3.7899 O   0  0  0  0  0  0  0  0  0  0  0  0
   -3.3832   -0.5248   -2.1710 C   0  0  0  0  0  0  0  0  0  0  0  0
   -6.3499    1.2662   -1.1268 C   0  0  0  0  0  0  0  0  0  0  0  0
   -7.0626    2.2966   -0.4895 C   0  0  0  0  0  0  0  0  0  0  0  0
   -7.9048    3.1508   -1.2115 C   0  0  0  0  0  0  0  0  0  0  0  0
   -8.5804    4.1492   -0.5067 O   0  0  0  0  0  0  0  0  0  0  0  0
   -8.0391    2.9781   -2.6084 C   0  0  0  0  0  0  0  0  0  0  0  0
   -8.8604    3.7889   -3.3945 O   0  0  0  0  0  0  0  0  0  0  0  0
   -7.3253    1.9580   -3.2447 C   0  0  0  0  0  0  0  0  0  0  0  0
   -6.4873    1.1114   -2.5173 C   0  0  0  0  0  0  0  0  0  0  0  0
   -1.7376    1.1888   -1.2465 C   0  0  0  0  0  0  0  0  0  0  0  0
   -0.8851    0.2215   -0.6564 C   0  0  0  0  0  0  0  0  0  0  0  0
   -1.4345   -0.9955   -0.2243 O   0  0  0  0  0  0  0  0  0  0  0  0
   -0.7117   -1.9771    0.5129 C   0  0  1  0  0  0  0  0  0  0  0  0
    0.7383   -2.0294    0.0058 C   0  0  2  0  0  0  0  0  0  0  0  0
    1.4934   -2.9934    0.7008 O   0  0  0  0  0  0  0  0  0  0  0  0
    1.4200   -0.6341    0.0221 C   0  0  1  0  0  0  0  0  0  0  0  0
    2.7188   -0.7326   -0.7827 C   0  0  0  0  0  0  0  0  0  0  0  0
    2.7057   -0.7279   -2.1968 C   0  0  0  0  0  0  0  0  0  0  0  0
    1.5031   -0.6108   -2.8942 O   0  0  0  0  0  0  0  0  0  0  0  0
    3.9025   -0.8457   -2.9112 C   0  0  0  0  0  0  0  0  0  0  0  0
    5.1193   -1.0102   -2.2448 C   0  0  0  0  0  0  0  0  0  0  0  0
    6.3037   -1.1117   -2.9750 O   0  0  0  0  0  0  0  0  0  0  0  0
    5.1461   -1.0791   -0.8428 C   0  0  0  0  0  0  0  0  0  0  0  0
    3.9486   -0.9223   -0.1112 C   0  0  0  0  0  0  0  0  0  0  0  0
    3.9705   -0.9688    1.2925 O   0  0  0  0  0  0  0  0  0  0  0  0
    5.1622   -1.0880    2.0739 C   0  0  1  0  0  0  0  0  0  0  0  0
    6.2511   -1.8497    1.2862 C   0  0  2  0  0  0  0  0  0  0  0  0
    7.4587   -1.9257    2.0043 O   0  0  0  0  0  0  0  0  0  0  0  0
    6.4595   -1.2533   -0.1168 C   0  0  0  0  0  0  0  0  0  0  0  0
    5.6160    0.2726    2.5739 C   0  0  0  0  0  0  0  0  0  0  0  0
    6.1204    0.3982    3.8809 C   0  0  0  0  0  0  0  0  0  0  0  0
    6.5617    1.6393    4.3611 C   0  0  0  0  0  0  0  0  0  0  0  0
    7.0565    1.7583    5.6587 O   0  0  0  0  0  0  0  0  0  0  0  0
    6.5073    2.7671    3.5338 C   0  0  0  0  0  0  0  0  0  0  0  0
    6.9452    3.9997    4.0146 O   0  0  0  0  0  0  0  0  0  0  0  0
    6.0158    2.6489    2.2280 C   0  0  0  0  0  0  0  0  0  0  0  0
    5.5774    1.4120    1.7494 C   0  0  0  0  0  0  0  0  0  0  0  0
    0.4945    0.4807   -0.4741 C   0  0  0  0  0  0  0  0  0  0  0  0
    0.9683    1.7951   -0.6920 C   0  0  0  0  0  0  0  0  0  0  0  0
    2.2586    2.1948   -0.3412 O   0  0  0  0  0  0  0  0  0  0  0  0
    0.1243    2.7565   -1.2423 C   0  0  0  0  0  0  0  0  0  0  0  0
   -1.2157    2.4812   -1.5110 C   0  0  0  0  0  0  0  0  0  0  0  0
   -1.9905    3.5364   -2.0026 O   0  0  0  0  0  0  0  0  0  0  0  0
   -0.8294   -1.7535    2.0129 C   0  0  0  0  0  0  0  0  0  0  0  0
   -0.8459   -2.8676    2.8716 C   0  0  0  0  0  0  0  0  0  0  0  0
   -0.9261   -2.7025    4.2615 C   0  0  0  0  0  0  0  0  0  0  0  0
   -0.9413   -3.8165    5.0994 O   0  0  0  0  0  0  0  0  0  0  0  0
   -0.9894   -1.4109    4.8076 C   0  0  0  0  0  0  0  0  0  0  0  0
   -1.0703   -1.2128    6.1856 O   0  0  0  0  0  0  0  0  0  0  0  0
   -0.9701   -0.2995    3.9613 C   0  0  0  0  0  0  0  0  0  0  0  0
   -0.8886   -0.4648    2.5767 C   0  0  0  0  0  0  0  0  0  0  0  0
   -3.6477    1.5444   -2.2482 H   0  0  0  0  0  0  0  0  0  0  0  0
   -3.4653    0.3704    0.5938 H   0  0  0  0  0  0  0  0  0  0  0  0
   -4.2797    2.3173    1.1811 H   0  0  0  0  0  0  0  0  0  0  0  0
   -5.8385    0.3221    0.7257 H   0  0  0  0  0  0  0  0  0  0  0  0
   -5.3600   -3.3037   -1.9614 H   0  0  0  0  0  0  0  0  0  0  0  0
   -3.2692   -4.6847   -4.6102 H   0  0  0  0  0  0  0  0  0  0  0  0
   -2.0879   -2.5259   -4.6229 H   0  0  0  0  0  0  0  0  0  0  0  0
   -1.0342   -0.3310   -4.5731 H   0  0  0  0  0  0  0  0  0  0  0  0
   -6.9614    2.4423    0.5793 H   0  0  0  0  0  0  0  0  0  0  0  0
   -9.2068    4.8164   -0.9334 H   0  0  0  0  0  0  0  0  0  0  0  0
   -9.4172    4.5491   -3.0317 H   0  0  0  0  0  0  0  0  0  0  0  0
   -7.4198    1.8215   -4.3147 H   0  0  0  0  0  0  0  0  0  0  0  0
   -5.9521    0.3417   -3.0522 H   0  0  0  0  0  0  0  0  0  0  0  0
   -1.1831   -2.9569    0.2770 H   0  0  0  0  0  0  0  0  0  0  0  0
    0.6761   -2.3695   -1.0520 H   0  0  0  0  0  0  0  0  0  0  0  0
    1.6935   -2.6354    1.6042 H   0  0  0  0  0  0  0  0  0  0  0  0
    1.6427   -0.3732    1.0787 H   0  0  0  0  0  0  0  0  0  0  0  0
    1.4724   -0.6065   -3.9069 H   0  0  0  0  0  0  0  0  0  0  0  0
    3.8853   -0.8177   -3.9935 H   0  0  0  0  0  0  0  0  0  0  0  0
    6.3101   -1.0663   -3.9873 H   0  0  0  0  0  0  0  0  0  0  0  0
    4.8989   -1.7105    2.9572 H   0  0  0  0  0  0  0  0  0  0  0  0
    5.8859   -2.8918    1.1478 H   0  0  0  0  0  0  0  0  0  0  0  0
    7.8844   -1.0293    1.9871 H   0  0  0  0  0  0  0  0  0  0  0  0
    6.9659   -0.2671   -0.0511 H   0  0  0  0  0  0  0  0  0  0  0  0
    7.1238   -1.9378   -0.6878 H   0  0  0  0  0  0  0  0  0  0  0  0
    6.1739   -0.4694    4.5272 H   0  0  0  0  0  0  0  0  0  0  0  0
    7.1091    0.9606    6.2814 H   0  0  0  0  0  0  0  0  0  0  0  0
    6.9186    4.8331    3.4387 H   0  0  0  0  0  0  0  0  0  0  0  0
    5.9761    3.5158    1.5807 H   0  0  0  0  0  0  0  0  0  0  0  0
    5.2153    1.3516    0.7339 H   0  0  0  0  0  0  0  0  0  0  0  0
    2.8617    1.6456    0.2539 H   0  0  0  0  0  0  0  0  0  0  0  0
    0.5055    3.7549   -1.4198 H   0  0  0  0  0  0  0  0  0  0  0  0
   -2.9964    3.5236   -2.0855 H   0  0  0  0  0  0  0  0  0  0  0  0
   -0.7896   -3.8681    2.4599 H   0  0  0  0  0  0  0  0  0  0  0  0
   -0.8958   -4.7592    4.7304 H   0  0  0  0  0  0  0  0  0  0  0  0
   -1.0870   -1.9857    6.8402 H   0  0  0  0  0  0  0  0  0  0  0  0
   -1.0171    0.6983    4.3789 H   0  0  0  0  0  0  0  0  0  0  0  0
   -0.8748    0.4204    1.9600 H   0  0  0  0  0  0  0  0  0  0  0  0
  1  2  1  0
  2  3  1  0
  2  4  1  0
  4  5  1  0
  5  6  1  0
  6  7  2  0
  7  8  1  0
  8  9  1  0
  8 10  2  0
 10 11  1  0
 11 12  1  0
 11 13  2  0
  4 14  1  0
 14 15  2  0
 15 16  1  0
 16 17  1  0
 16 18  2  0
 18 19  1  0
 18 20  1  0
 20 21  2  0
  1 22  1  0
 22 23  2  0
 23 24  1  0
 24 25  1  0
 25 26  1  0
 26 27  1  0
 26 28  1  0
 28 29  1  0
 29 30  2  0
 30 31  1  0
 30 32  1  0
 32 33  2  0
 33 34  1  0
 33 35  1  0
 35 36  2  0
 36 37  1  0
 37 38  1  0
 38 39  1  0
 39 40  1  0
 39 41  1  0
 38 42  1  0
 42 43  2  0
 43 44  1  0
 44 45  1  0
 44 46  2  0
 46 47  1  0
 46 48  1  0
 48 49  2  0
 28 50  1  0
 50 51  2  0
 51 52  1  0
 51 53  1  0
 53 54  2  0
 54 55  1  0
 25 56  1  0
 56 57  2  0
 57 58  1  0
 58 59  1  0
 58 60  2  0
 60 61  1  0
 60 62  1  0
 62 63  2  0
 13  1  1  0
 21 14  1  0
 54 22  1  0
 63 56  1  0
 13  6  1  0
 50 23  1  0
 36 29  1  0
 49 42  1  0
 41 35  1  0
  1 64  1  6
  2 65  1  1
  3 66  1  0
  4 67  1  1
  7 68  1  0
  9 69  1  0
 10 70  1  0
 12 71  1  0
 15 72  1  0
 17 73  1  0
 19 74  1  0
 20 75  1  0
 21 76  1  0
 25 77  1  1
 26 78  1  6
 27 79  1  0
 28 80  1  1
 31 81  1  0
 32 82  1  0
 34 83  1  0
 38 84  1  1
 39 85  1  6
 40 86  1  0
 41 87  1  0
 41 88  1  0
 43 89  1  0
 45 90  1  0
 47 91  1  0
 48 92  1  0
 49 93  1  0
 52 94  1  0
 53 95  1  0
 55 96  1  0
 57 97  1  0
 59 98  1  0
 61 99  1  0
 62100  1  0
 63101  1  0
M  END
>  <LIG_ID>  (101) 
100

>  <_smiles>  (101) 
[H][C@]1([C@@H](O)[C@H](OC2=CC(O)=CC(O)=C12)C1=CC(O)=C(O)C=C1)C1=C2O[C@@H]([C@H](O)[C@@]([H])(C3=C(O)C=C(O)C4=C3O[C@@H]([C@H](O)C4)C3=CC(O)=C(O)C=C3)C2=C(O)C=C1O)C1=CC(O)=C(O)C=C1

>  <_name>  (101) 
Procyanidin trimer C1

>  <_molecular_weight>  (101) 
866.772

>  <_formula>  (101) 
C45H38O18

>  <_logP>  (101) 
4.4439000000000135

>  <_molecular_wt_calculated>  (101) 
866.7810000000014

>  <_havy_atom_count>  (101) 
63

>  <_hydrogen_acceptors>  (101) 
18

>  <_hydrogen_donors>  (101) 
15

>  <_rotatable_bonds>  (101) 
20

>  <_amide_bonds>  (101) 
0

>  <_ring_count>  (101) 
9

$$$$
Procyanidin trimer EEC
     RDKit          3D

101109  0  0  0  0  0  0  0  0999 V2000
    5.1243    1.2824   -2.0732 C   0  0  1  0  0  0  0  0  0  0  0  0
    5.5158    1.4431   -3.4124 O   0  0  0  0  0  0  0  0  0  0  0  0
    5.5848    2.4920   -1.2514 C   0  0  0  0  0  0  0  0  0  0  0  0
    5.0488    2.4359    0.1576 C   0  0  0  0  0  0  0  0  0  0  0  0
    3.8283    1.7789    0.4169 C   0  0  0  0  0  0  0  0  0  0  0  0
    3.1638    1.1149   -0.6267 O   0  0  0  0  0  0  0  0  0  0  0  0
    3.5927    1.1547   -1.9909 C   0  0  2  0  0  0  0  0  0  0  0  0
    3.1366   -0.0935   -2.7105 C   0  0  0  0  0  0  0  0  0  0  0  0
    2.7374   -0.0233   -4.0546 C   0  0  0  0  0  0  0  0  0  0  0  0
    2.4220   -1.1871   -4.7598 C   0  0  0  0  0  0  0  0  0  0  0  0
    2.5011   -2.4378   -4.1324 C   0  0  0  0  0  0  0  0  0  0  0  0
    2.1816   -3.5971   -4.8374 O   0  0  0  0  0  0  0  0  0  0  0  0
    2.8965   -2.5178   -2.7871 C   0  0  0  0  0  0  0  0  0  0  0  0
    2.9754   -3.7457   -2.1310 O   0  0  0  0  0  0  0  0  0  0  0  0
    3.2235   -1.3513   -2.0877 C   0  0  0  0  0  0  0  0  0  0  0  0
    3.2808    1.7667    1.7254 C   0  0  0  0  0  0  0  0  0  0  0  0
    1.9009    1.1455    1.9697 C   0  0  0  0  0  0  0  0  0  0  0  0
    0.8203    1.6729    1.0223 C   0  0  0  0  0  0  0  0  0  0  0  0
   -0.2274    0.8129    0.6109 C   0  0  0  0  0  0  0  0  0  0  0  0
   -0.2379   -0.5325    1.0087 O   0  0  0  0  0  0  0  0  0  0  0  0
    0.6331   -1.0848    1.9933 C   0  0  2  0  0  0  0  0  0  0  0  0
   -0.0053   -1.0443    3.3726 C   0  0  0  0  0  0  0  0  0  0  0  0
    0.1940   -2.1206    4.2546 C   0  0  0  0  0  0  0  0  0  0  0  0
   -0.3670   -2.1055    5.5335 C   0  0  0  0  0  0  0  0  0  0  0  0
   -1.1334   -1.0126    5.9561 C   0  0  0  0  0  0  0  0  0  0  0  0
   -1.6937   -1.0008    7.2324 O   0  0  0  0  0  0  0  0  0  0  0  0
   -1.3336    0.0729    5.0883 C   0  0  0  0  0  0  0  0  0  0  0  0
   -2.0894    1.1777    5.4793 O   0  0  0  0  0  0  0  0  0  0  0  0
   -0.7690    0.0557    3.8085 C   0  0  0  0  0  0  0  0  0  0  0  0
    2.0121   -0.4009    1.9245 C   0  0  2  0  0  0  0  0  0  0  0  0
    2.8828   -0.8956    2.9137 O   0  0  0  0  0  0  0  0  0  0  0  0
   -1.2987    1.3007   -0.1759 C   0  0  0  0  0  0  0  0  0  0  0  0
   -2.4879    0.4025   -0.5229 C   0  0  0  0  0  0  0  0  0  0  0  0
   -2.0443   -0.8913   -1.2003 C   0  0  0  0  0  0  0  0  0  0  0  0
   -2.5341   -2.1346   -0.7424 C   0  0  0  0  0  0  0  0  0  0  0  0
   -3.5003   -2.1864    0.2668 O   0  0  0  0  0  0  0  0  0  0  0  0
   -4.2984   -1.0471    0.5875 C   0  0  2  0  0  0  0  0  0  0  0  0
   -5.4250   -0.9226   -0.4410 C   0  0  0  0  0  0  0  0  0  0  0  0
   -5.8351    0.2965   -1.0231 C   0  0  0  0  0  0  0  0  0  0  0  0
   -6.8910    0.3298   -1.9377 C   0  0  0  0  0  0  0  0  0  0  0  0
   -7.5734   -0.8430   -2.2775 C   0  0  0  0  0  0  0  0  0  0  0  0
   -8.6244   -0.8035   -3.1925 O   0  0  0  0  0  0  0  0  0  0  0  0
   -7.1971   -2.0586   -1.6887 C   0  0  0  0  0  0  0  0  0  0  0  0
   -7.8624   -3.2450   -1.9965 O   0  0  0  0  0  0  0  0  0  0  0  0
   -6.1392   -2.0905   -0.7744 C   0  0  0  0  0  0  0  0  0  0  0  0
   -3.3402    0.1506    0.7582 C   0  0  2  0  0  0  0  0  0  0  0  0
   -4.0392    1.3023    1.1564 O   0  0  0  0  0  0  0  0  0  0  0  0
   -2.0798   -3.3262   -1.3130 C   0  0  0  0  0  0  0  0  0  0  0  0
   -1.2121   -3.2943   -2.4095 C   0  0  0  0  0  0  0  0  0  0  0  0
   -0.7688   -4.4753   -3.0004 O   0  0  0  0  0  0  0  0  0  0  0  0
   -0.7999   -2.0666   -2.9309 C   0  0  0  0  0  0  0  0  0  0  0  0
   -1.2038   -0.8657   -2.3336 C   0  0  0  0  0  0  0  0  0  0  0  0
   -0.7820    0.3503   -2.8711 O   0  0  0  0  0  0  0  0  0  0  0  0
   -1.3169    2.6616   -0.5401 C   0  0  0  0  0  0  0  0  0  0  0  0
   -2.3581    3.1734   -1.3156 O   0  0  0  0  0  0  0  0  0  0  0  0
   -0.3021    3.5163   -0.1071 C   0  0  0  0  0  0  0  0  0  0  0  0
    0.7366    3.0467    0.6998 C   0  0  0  0  0  0  0  0  0  0  0  0
    1.6721    3.9552    1.1955 O   0  0  0  0  0  0  0  0  0  0  0  0
    4.0243    2.3701    2.7784 C   0  0  0  0  0  0  0  0  0  0  0  0
    3.6342    2.3267    4.1206 O   0  0  0  0  0  0  0  0  0  0  0  0
    5.2128    3.0451    2.4935 C   0  0  0  0  0  0  0  0  0  0  0  0
    5.7206    3.0963    1.1955 C   0  0  0  0  0  0  0  0  0  0  0  0
    6.8993    3.7966    0.9370 O   0  0  0  0  0  0  0  0  0  0  0  0
    5.5884    0.3600   -1.6483 H   0  0  0  0  0  0  0  0  0  0  0  0
    6.4871    1.2413   -3.4527 H   0  0  0  0  0  0  0  0  0  0  0  0
    5.2305    3.4307   -1.7305 H   0  0  0  0  0  0  0  0  0  0  0  0
    6.6964    2.5051   -1.2419 H   0  0  0  0  0  0  0  0  0  0  0  0
    3.1309    2.0507   -2.4635 H   0  0  0  0  0  0  0  0  0  0  0  0
    2.6870    0.9317   -4.5626 H   0  0  0  0  0  0  0  0  0  0  0  0
    2.1173   -1.1163   -5.7961 H   0  0  0  0  0  0  0  0  0  0  0  0
    1.8861   -3.5643   -5.8061 H   0  0  0  0  0  0  0  0  0  0  0  0
    2.7436   -4.6175   -2.5916 H   0  0  0  0  0  0  0  0  0  0  0  0
    3.5655   -1.4306   -1.0639 H   0  0  0  0  0  0  0  0  0  0  0  0
    1.5225    1.4298    2.9662 H   0  0  0  0  0  0  0  0  0  0  0  0
    0.7804   -2.1523    1.7166 H   0  0  0  0  0  0  0  0  0  0  0  0
    0.7886   -2.9740    3.9528 H   0  0  0  0  0  0  0  0  0  0  0  0
   -0.2035   -2.9451    6.1971 H   0  0  0  0  0  0  0  0  0  0  0  0
   -1.5628   -1.7720    7.8766 H   0  0  0  0  0  0  0  0  0  0  0  0
   -2.5193    1.2392    6.3944 H   0  0  0  0  0  0  0  0  0  0  0  0
   -0.9350    0.9066    3.1648 H   0  0  0  0  0  0  0  0  0  0  0  0
    2.4444   -0.6886    0.9446 H   0  0  0  0  0  0  0  0  0  0  0  0
    2.5805   -0.5463    3.7911 H   0  0  0  0  0  0  0  0  0  0  0  0
   -3.1341    0.9066   -1.2685 H   0  0  0  0  0  0  0  0  0  0  0  0
   -4.7797   -1.2366    1.5715 H   0  0  0  0  0  0  0  0  0  0  0  0
   -5.3574    1.2336   -0.7948 H   0  0  0  0  0  0  0  0  0  0  0  0
   -7.1815    1.2741   -2.3808 H   0  0  0  0  0  0  0  0  0  0  0  0
   -8.9150    0.0632   -3.6299 H   0  0  0  0  0  0  0  0  0  0  0  0
   -8.6348   -3.2747   -2.6512 H   0  0  0  0  0  0  0  0  0  0  0  0
   -5.8726   -3.0381   -0.3217 H   0  0  0  0  0  0  0  0  0  0  0  0
   -2.6609   -0.1456    1.5897 H   0  0  0  0  0  0  0  0  0  0  0  0
   -3.3811    1.9082    1.5869 H   0  0  0  0  0  0  0  0  0  0  0  0
   -2.4368   -4.2742   -0.9310 H   0  0  0  0  0  0  0  0  0  0  0  0
   -1.0520   -5.3823   -2.6484 H   0  0  0  0  0  0  0  0  0  0  0  0
   -0.1751   -2.0457   -3.8112 H   0  0  0  0  0  0  0  0  0  0  0  0
   -0.1851    0.3927   -3.6884 H   0  0  0  0  0  0  0  0  0  0  0  0
   -2.3946    4.1503   -1.5825 H   0  0  0  0  0  0  0  0  0  0  0  0
   -0.3418    4.5663   -0.3690 H   0  0  0  0  0  0  0  0  0  0  0  0
    1.6267    4.9435    0.9766 H   0  0  0  0  0  0  0  0  0  0  0  0
    2.9039    1.7378    4.4919 H   0  0  0  0  0  0  0  0  0  0  0  0
    5.7539    3.5282    3.2979 H   0  0  0  0  0  0  0  0  0  0  0  0
    7.4034    4.2796    1.6716 H   0  0  0  0  0  0  0  0  0  0  0  0
  1  2  1  0
  1  3  1  0
  3  4  1  0
  4  5  2  0
  5  6  1  0
  6  7  1  0
  7  8  1  0
  8  9  2  0
  9 10  1  0
 10 11  2  0
 11 12  1  0
 11 13  1  0
 13 14  1  0
 13 15  2  0
  5 16  1  0
 16 17  1  0
 17 18  1  0
 18 19  2  0
 19 20  1  0
 20 21  1  0
 21 22  1  0
 22 23  2  0
 23 24  1  0
 24 25  2  0
 25 26  1  0
 25 27  1  0
 27 28  1  0
 27 29  2  0
 21 30  1  0
 30 31  1  0
 19 32  1  0
 32 33  1  0
 33 34  1  0
 34 35  2  0
 35 36  1  0
 36 37  1  0
 37 38  1  0
 38 39  2  0
 39 40  1  0
 40 41  2  0
 41 42  1  0
 41 43  1  0
 43 44  1  0
 43 45  2  0
 37 46  1  0
 46 47  1  0
 35 48  1  0
 48 49  2  0
 49 50  1  0
 49 51  1  0
 51 52  2  0
 52 53  1  0
 32 54  2  0
 54 55  1  0
 54 56  1  0
 56 57  2  0
 57 58  1  0
 16 59  2  0
 59 60  1  0
 59 61  1  0
 61 62  2  0
 62 63  1  0
  7  1  1  0
 15  8  1  0
 30 17  1  0
 46 33  1  0
 62  4  1  0
 57 18  1  0
 29 22  1  0
 52 34  1  0
 45 38  1  0
  1 64  1  1
  2 65  1  0
  3 66  1  0
  3 67  1  0
  7 68  1  6
  9 69  1  0
 10 70  1  0
 12 71  1  0
 14 72  1  0
 15 73  1  0
 17 74  1  0
 21 75  1  6
 23 76  1  0
 24 77  1  0
 26 78  1  0
 28 79  1  0
 29 80  1  0
 30 81  1  6
 31 82  1  0
 33 83  1  0
 37 84  1  1
 39 85  1  0
 40 86  1  0
 42 87  1  0
 44 88  1  0
 45 89  1  0
 46 90  1  1
 47 91  1  0
 48 92  1  0
 50 93  1  0
 51 94  1  0
 53 95  1  0
 55 96  1  0
 56 97  1  0
 58 98  1  0
 60 99  1  0
 61100  1  0
 63101  1  0
M  END
>  <LIG_ID>  (102) 
101

>  <_smiles>  (102) 
[H][C@]1(O)CC2=C(O[C@]1([H])C1=CC=C(O)C(O)=C1)C(C1C3=C(O[C@]([H])(C4=CC=C(O)C(O)=C4)[C@]1([H])O)C(C1C4=C(O[C@]([H])(C5=CC=C(O)C(O)=C5)[C@]1([H])O)C=C(O)C=C4O)=C(O)C=C3O)=C(O)C=C2O

>  <_name>  (102) 
Procyanidin trimer EEC

>  <_molecular_weight>  (102) 
866.772

>  <_formula>  (102) 
C45H38O18

>  <_logP>  (102) 
4.443900000000014

>  <_molecular_wt_calculated>  (102) 
866.7810000000017

>  <_havy_atom_count>  (102) 
63

>  <_hydrogen_acceptors>  (102) 
18

>  <_hydrogen_donors>  (102) 
15

>  <_rotatable_bonds>  (102) 
20

>  <_amide_bonds>  (102) 
0

>  <_ring_count>  (102) 
9

$$$$
Procyanidin trimer T2
     RDKit          3D

101109  0  0  0  0  0  0  0  0999 V2000
    4.6613   -0.8439   -3.6313 O   0  0  0  0  0  0  0  0  0  0  0  0
    4.2118    0.1964   -2.8016 C   0  0  0  0  0  0  0  0  0  0  0  0
    5.3490    0.6870   -1.8960 C   0  0  0  0  0  0  0  0  0  0  0  0
    4.8572    1.6845   -0.8741 C   0  0  0  0  0  0  0  0  0  0  0  0
    5.7493    2.6054   -0.3029 C   0  0  0  0  0  0  0  0  0  0  0  0
    7.0817    2.6418   -0.7150 O   0  0  0  0  0  0  0  0  0  0  0  0
    5.3013    3.4898    0.6800 C   0  0  0  0  0  0  0  0  0  0  0  0
    3.9820    3.4380    1.1404 C   0  0  0  0  0  0  0  0  0  0  0  0
    3.5658    4.3384    2.1224 O   0  0  0  0  0  0  0  0  0  0  0  0
    3.0809    2.4817    0.6216 C   0  0  0  0  0  0  0  0  0  0  0  0
    1.6667    2.4045    1.2080 C   0  0  0  0  0  0  0  0  0  0  0  0
    0.6885    3.3698    0.4836 C   0  0  0  0  0  0  0  0  0  0  0  0
   -0.3015    3.8297    1.3744 O   0  0  0  0  0  0  0  0  0  0  0  0
    0.0531    2.6971   -0.7483 C   0  0  0  0  0  0  0  0  0  0  0  0
   -0.5515    1.4605   -0.3771 O   0  0  0  0  0  0  0  0  0  0  0  0
    0.0385    0.5637    0.5226 C   0  0  0  0  0  0  0  0  0  0  0  0
   -0.4893   -0.7429    0.6471 C   0  0  0  0  0  0  0  0  0  0  0  0
   -1.7787   -1.0853   -0.1126 C   0  0  0  0  0  0  0  0  0  0  0  0
   -3.0298   -0.6416    0.6910 C   0  0  0  0  0  0  0  0  0  0  0  0
   -4.1229   -0.4942   -0.1821 O   0  0  0  0  0  0  0  0  0  0  0  0
   -3.3723   -1.6853    1.7683 C   0  0  0  0  0  0  0  0  0  0  0  0
   -3.5455   -2.9699    1.1699 O   0  0  0  0  0  0  0  0  0  0  0  0
   -2.7466   -3.4204    0.1126 C   0  0  0  0  0  0  0  0  0  0  0  0
   -2.8389   -4.7578   -0.2806 C   0  0  0  0  0  0  0  0  0  0  0  0
   -2.0468   -5.2434   -1.3255 C   0  0  0  0  0  0  0  0  0  0  0  0
   -2.1262   -6.5785   -1.7154 O   0  0  0  0  0  0  0  0  0  0  0  0
   -1.1668   -4.3844   -1.9862 C   0  0  0  0  0  0  0  0  0  0  0  0
   -1.0695   -3.0387   -1.6169 C   0  0  0  0  0  0  0  0  0  0  0  0
   -0.1804   -2.2294   -2.3252 O   0  0  0  0  0  0  0  0  0  0  0  0
   -1.8645   -2.5396   -0.5560 C   0  0  0  0  0  0  0  0  0  0  0  0
   -4.6080   -1.2894    2.5443 C   0  0  0  0  0  0  0  0  0  0  0  0
   -5.8924   -1.6400    2.0908 C   0  0  0  0  0  0  0  0  0  0  0  0
   -7.0334   -1.2334    2.7978 C   0  0  0  0  0  0  0  0  0  0  0  0
   -8.3022   -1.5921    2.3453 O   0  0  0  0  0  0  0  0  0  0  0  0
   -6.8941   -0.4602    3.9626 C   0  0  0  0  0  0  0  0  0  0  0  0
   -8.0089   -0.0419    4.6884 O   0  0  0  0  0  0  0  0  0  0  0  0
   -5.6188   -0.0968    4.4059 C   0  0  0  0  0  0  0  0  0  0  0  0
   -4.4834   -0.5018    3.7002 C   0  0  0  0  0  0  0  0  0  0  0  0
    0.1387   -1.6440    1.5443 C   0  0  0  0  0  0  0  0  0  0  0  0
   -0.3294   -2.9470    1.7051 O   0  0  0  0  0  0  0  0  0  0  0  0
    1.2472   -1.2336    2.2917 C   0  0  0  0  0  0  0  0  0  0  0  0
    1.7416    0.0668    2.1874 C   0  0  0  0  0  0  0  0  0  0  0  0
    2.8393    0.4559    2.9556 O   0  0  0  0  0  0  0  0  0  0  0  0
    1.1373    0.9789    1.3072 C   0  0  0  0  0  0  0  0  0  0  0  0
   -0.9613    3.5998   -1.4125 C   0  0  0  0  0  0  0  0  0  0  0  0
   -0.5448    4.5162   -2.3922 C   0  0  0  0  0  0  0  0  0  0  0  0
   -1.4673    5.3821   -2.9971 C   0  0  0  0  0  0  0  0  0  0  0  0
   -1.0457    6.2826   -3.9742 O   0  0  0  0  0  0  0  0  0  0  0  0
   -2.8185    5.3411   -2.6137 C   0  0  0  0  0  0  0  0  0  0  0  0
   -3.7602    6.1877   -3.1977 O   0  0  0  0  0  0  0  0  0  0  0  0
   -3.2331    4.4405   -1.6278 C   0  0  0  0  0  0  0  0  0  0  0  0
   -2.3131    3.5794   -1.0252 C   0  0  0  0  0  0  0  0  0  0  0  0
    3.5204    1.6299   -0.4235 C   0  0  0  0  0  0  0  0  0  0  0  0
    2.6262    0.7272   -1.0169 O   0  0  0  0  0  0  0  0  0  0  0  0
    3.0015   -0.2694   -1.9700 C   0  0  0  0  0  0  0  0  0  0  0  0
    3.2140   -1.6105   -1.2886 C   0  0  0  0  0  0  0  0  0  0  0  0
    2.8350   -2.7907   -1.9491 C   0  0  0  0  0  0  0  0  0  0  0  0
    2.9568   -4.0392   -1.3279 C   0  0  0  0  0  0  0  0  0  0  0  0
    2.5296   -5.1640   -2.0364 O   0  0  0  0  0  0  0  0  0  0  0  0
    3.4971   -4.1174   -0.0233 C   0  0  0  0  0  0  0  0  0  0  0  0
    3.6418   -5.3245    0.6631 O   0  0  0  0  0  0  0  0  0  0  0  0
    3.9099   -2.9459    0.6191 C   0  0  0  0  0  0  0  0  0  0  0  0
    3.7768   -1.7051   -0.0052 C   0  0  0  0  0  0  0  0  0  0  0  0
    5.2396   -0.4292   -4.3237 H   0  0  0  0  0  0  0  0  0  0  0  0
    3.8742    1.0528   -3.4326 H   0  0  0  0  0  0  0  0  0  0  0  0
    5.8114   -0.1731   -1.3661 H   0  0  0  0  0  0  0  0  0  0  0  0
    6.1288    1.1500   -2.5389 H   0  0  0  0  0  0  0  0  0  0  0  0
    7.7440    3.2976   -0.3174 H   0  0  0  0  0  0  0  0  0  0  0  0
    5.9877    4.2140    1.1006 H   0  0  0  0  0  0  0  0  0  0  0  0
    4.1937    5.0326    2.5106 H   0  0  0  0  0  0  0  0  0  0  0  0
    1.7226    2.7592    2.2613 H   0  0  0  0  0  0  0  0  0  0  0  0
    1.2533    4.2641    0.1379 H   0  0  0  0  0  0  0  0  0  0  0  0
   -0.7989    3.0404    1.7135 H   0  0  0  0  0  0  0  0  0  0  0  0
    0.8560    2.4753   -1.4834 H   0  0  0  0  0  0  0  0  0  0  0  0
   -1.8026   -0.4861   -1.0477 H   0  0  0  0  0  0  0  0  0  0  0  0
   -2.8273    0.3337    1.1964 H   0  0  0  0  0  0  0  0  0  0  0  0
   -4.0195    0.3872   -0.6276 H   0  0  0  0  0  0  0  0  0  0  0  0
   -2.5220   -1.7548    2.4802 H   0  0  0  0  0  0  0  0  0  0  0  0
   -3.5219   -5.4214    0.2348 H   0  0  0  0  0  0  0  0  0  0  0  0
   -2.7542   -7.2279   -1.2563 H   0  0  0  0  0  0  0  0  0  0  0  0
   -0.5545   -4.7640   -2.7949 H   0  0  0  0  0  0  0  0  0  0  0  0
   -0.0192   -1.2557   -2.1087 H   0  0  0  0  0  0  0  0  0  0  0  0
   -6.0094   -2.2245    1.1865 H   0  0  0  0  0  0  0  0  0  0  0  0
   -8.4297   -2.1481    1.5078 H   0  0  0  0  0  0  0  0  0  0  0  0
   -8.9532   -0.2783    4.4080 H   0  0  0  0  0  0  0  0  0  0  0  0
   -5.5078    0.5054    5.2988 H   0  0  0  0  0  0  0  0  0  0  0  0
   -3.5055   -0.1990    4.0543 H   0  0  0  0  0  0  0  0  0  0  0  0
    0.1131   -3.6015    2.3396 H   0  0  0  0  0  0  0  0  0  0  0  0
    1.7236   -1.9310    2.9694 H   0  0  0  0  0  0  0  0  0  0  0  0
    3.2996   -0.1865    3.5898 H   0  0  0  0  0  0  0  0  0  0  0  0
    0.4973    4.5582   -2.6850 H   0  0  0  0  0  0  0  0  0  0  0  0
   -0.0771    6.3324   -4.2678 H   0  0  0  0  0  0  0  0  0  0  0  0
   -3.5097    6.8575   -3.9151 H   0  0  0  0  0  0  0  0  0  0  0  0
   -4.2721    4.4106   -1.3248 H   0  0  0  0  0  0  0  0  0  0  0  0
   -2.6572    2.8994   -0.2558 H   0  0  0  0  0  0  0  0  0  0  0  0
    2.1466   -0.3726   -2.6722 H   0  0  0  0  0  0  0  0  0  0  0  0
    2.4243   -2.7414   -2.9502 H   0  0  0  0  0  0  0  0  0  0  0  0
    2.5699   -6.1067   -1.6769 H   0  0  0  0  0  0  0  0  0  0  0  0
    3.3699   -6.2223    0.2895 H   0  0  0  0  0  0  0  0  0  0  0  0
    4.3299   -2.9969    1.6158 H   0  0  0  0  0  0  0  0  0  0  0  0
    4.1017   -0.8233    0.5277 H   0  0  0  0  0  0  0  0  0  0  0  0
  1  2  1  0
  2  3  1  0
  3  4  1  0
  4  5  2  0
  5  6  1  0
  5  7  1  0
  7  8  2  0
  8  9  1  0
  8 10  1  0
 10 11  1  0
 11 12  1  0
 12 13  1  0
 12 14  1  0
 14 15  1  0
 15 16  1  0
 16 17  2  0
 17 18  1  0
 18 19  1  0
 19 20  1  0
 19 21  1  0
 21 22  1  0
 22 23  1  0
 23 24  2  0
 24 25  1  0
 25 26  1  0
 25 27  2  0
 27 28  1  0
 28 29  1  0
 28 30  2  0
 21 31  1  0
 31 32  2  0
 32 33  1  0
 33 34  1  0
 33 35  2  0
 35 36  1  0
 35 37  1  0
 37 38  2  0
 17 39  1  0
 39 40  1  0
 39 41  2  0
 41 42  1  0
 42 43  1  0
 42 44  2  0
 14 45  1  0
 45 46  2  0
 46 47  1  0
 47 48  1  0
 47 49  2  0
 49 50  1  0
 49 51  1  0
 51 52  2  0
 10 53  2  0
 53 54  1  0
 54 55  1  0
 55 56  1  0
 56 57  2  0
 57 58  1  0
 58 59  1  0
 58 60  2  0
 60 61  1  0
 60 62  1  0
 62 63  2  0
 55  2  1  0
 63 56  1  0
 53  4  1  0
 44 11  1  0
 52 45  1  0
 44 16  1  0
 30 18  1  0
 38 31  1  0
 30 23  1  0
  1 64  1  0
  2 65  1  0
  3 66  1  0
  3 67  1  0
  6 68  1  0
  7 69  1  0
  9 70  1  0
 11 71  1  0
 12 72  1  0
 13 73  1  0
 14 74  1  0
 18 75  1  0
 19 76  1  0
 20 77  1  0
 21 78  1  0
 24 79  1  0
 26 80  1  0
 27 81  1  0
 29 82  1  0
 32 83  1  0
 34 84  1  0
 36 85  1  0
 37 86  1  0
 38 87  1  0
 40 88  1  0
 41 89  1  0
 43 90  1  0
 46 91  1  0
 48 92  1  0
 50 93  1  0
 51 94  1  0
 52 95  1  0
 55 96  1  0
 57 97  1  0
 59 98  1  0
 61 99  1  0
 62100  1  0
 63101  1  0
M  END
>  <LIG_ID>  (103) 
102

>  <_smiles>  (103) 
OC1CC2=C(O)C=C(O)C(C3C(O)C(OC4=C(C5C(O)C(OC6=CC(O)=CC(O)=C56)C5=CC(O)=C(O)C=C5)C(O)=CC(O)=C34)C3=CC(O)=C(O)C=C3)=C2OC1C1=CC(O)=C(O)C=C1

>  <_name>  (103) 
Procyanidin trimer T2

>  <_molecular_weight>  (103) 
866.772

>  <_formula>  (103) 
C45H38O18

>  <_logP>  (103) 
4.4439000000000135

>  <_molecular_wt_calculated>  (103) 
866.7810000000014

>  <_havy_atom_count>  (103) 
63

>  <_hydrogen_acceptors>  (103) 
18

>  <_hydrogen_donors>  (103) 
15

>  <_rotatable_bonds>  (103) 
20

>  <_amide_bonds>  (103) 
0

>  <_ring_count>  (103) 
9

$$$$
Procyanidin trimer C2
     RDKit          3D

101109  0  0  0  0  0  0  0  0999 V2000
    6.1469    2.7178    0.4916 C   0  0  1  0  0  0  0  0  0  0  0  0
    5.6517    3.9640    0.9121 O   0  0  0  0  0  0  0  0  0  0  0  0
    6.2119    1.7523    1.6882 C   0  0  0  0  0  0  0  0  0  0  0  0
    4.8415    1.2962    2.1434 C   0  0  0  0  0  0  0  0  0  0  0  0
    3.7506    1.3662    1.2472 C   0  0  0  0  0  0  0  0  0  0  0  0
    3.9449    1.8359   -0.0613 O   0  0  0  0  0  0  0  0  0  0  0  0
    5.2249    2.1619   -0.6061 C   0  0  2  0  0  0  0  0  0  0  0  0
    5.8472    0.9799   -1.3293 C   0  0  0  0  0  0  0  0  0  0  0  0
    5.5463   -0.3515   -0.9830 C   0  0  0  0  0  0  0  0  0  0  0  0
    6.1562   -1.4133   -1.6556 C   0  0  0  0  0  0  0  0  0  0  0  0
    7.0817   -1.1651   -2.6765 C   0  0  0  0  0  0  0  0  0  0  0  0
    7.6915   -2.2224   -3.3492 O   0  0  0  0  0  0  0  0  0  0  0  0
    7.3985    0.1536   -3.0225 C   0  0  0  0  0  0  0  0  0  0  0  0
    8.3240    0.3983   -4.0355 O   0  0  0  0  0  0  0  0  0  0  0  0
    6.7856    1.2194   -2.3487 C   0  0  0  0  0  0  0  0  0  0  0  0
    2.4612    0.9589    1.6522 C   0  0  0  0  0  0  0  0  0  0  0  0
    2.2877    0.4192    2.9457 C   0  0  0  0  0  0  0  0  0  0  0  0
    1.0331   -0.0272    3.3638 O   0  0  0  0  0  0  0  0  0  0  0  0
    3.3774    0.3155    3.8143 C   0  0  0  0  0  0  0  0  0  0  0  0
    4.6506    0.7290    3.4226 C   0  0  0  0  0  0  0  0  0  0  0  0
    5.7025    0.5440    4.3233 O   0  0  0  0  0  0  0  0  0  0  0  0
    1.2905    1.0358    0.6724 C   0  0  2  0  0  0  0  0  0  0  0  0
    0.0647    1.7094    1.2925 C   0  0  0  0  0  0  0  0  0  0  0  0
   -1.2104    1.1249    1.1508 C   0  0  0  0  0  0  0  0  0  0  0  0
   -1.3580   -0.0209    0.3646 O   0  0  0  0  0  0  0  0  0  0  0  0
   -0.3672   -0.4263   -0.5684 C   0  0  2  0  0  0  0  0  0  0  0  0
   -0.7126   -1.8036   -1.0828 C   0  0  0  0  0  0  0  0  0  0  0  0
   -0.8476   -2.0303   -2.4622 C   0  0  0  0  0  0  0  0  0  0  0  0
   -1.1843   -3.2993   -2.9397 C   0  0  0  0  0  0  0  0  0  0  0  0
   -1.3827   -4.3599   -2.0463 C   0  0  0  0  0  0  0  0  0  0  0  0
   -1.7150   -5.6282   -2.5191 O   0  0  0  0  0  0  0  0  0  0  0  0
   -1.2438   -4.1462   -0.6695 C   0  0  0  0  0  0  0  0  0  0  0  0
   -1.4267   -5.2073    0.2148 O   0  0  0  0  0  0  0  0  0  0  0  0
   -0.9178   -2.8699   -0.1895 C   0  0  0  0  0  0  0  0  0  0  0  0
    1.0088   -0.3846    0.1133 C   0  0  1  0  0  0  0  0  0  0  0  0
    2.0141   -0.7227   -0.8100 O   0  0  0  0  0  0  0  0  0  0  0  0
   -2.3455    1.6844    1.7846 C   0  0  0  0  0  0  0  0  0  0  0  0
   -2.2086    2.9384    2.4347 C   0  0  0  0  0  0  0  0  0  0  0  0
   -3.2869    3.6348    2.9880 O   0  0  0  0  0  0  0  0  0  0  0  0
   -0.9527    3.5433    2.5181 C   0  0  0  0  0  0  0  0  0  0  0  0
    0.1768    2.9490    1.9500 C   0  0  0  0  0  0  0  0  0  0  0  0
    1.4092    3.5986    2.0260 O   0  0  0  0  0  0  0  0  0  0  0  0
   -3.6832    0.9401    1.7203 C   0  0  2  0  0  0  0  0  0  0  0  0
   -3.5323   -0.5278    2.1248 C   0  0  0  0  0  0  0  0  0  0  0  0
   -4.1502   -1.5374    1.3577 C   0  0  0  0  0  0  0  0  0  0  0  0
   -4.9467   -1.2074    0.2613 O   0  0  0  0  0  0  0  0  0  0  0  0
   -5.4297    0.1167    0.0540 C   0  0  2  0  0  0  0  0  0  0  0  0
   -5.9635    0.2394   -1.3543 C   0  0  0  0  0  0  0  0  0  0  0  0
   -5.2284   -0.2645   -2.4414 C   0  0  0  0  0  0  0  0  0  0  0  0
   -5.7099   -0.1239   -3.7448 C   0  0  0  0  0  0  0  0  0  0  0  0
   -6.9268    0.5292   -3.9823 C   0  0  0  0  0  0  0  0  0  0  0  0
   -7.4053    0.6675   -5.2842 O   0  0  0  0  0  0  0  0  0  0  0  0
   -7.6620    1.0467   -2.9021 C   0  0  0  0  0  0  0  0  0  0  0  0
   -8.8734    1.7068   -3.1058 O   0  0  0  0  0  0  0  0  0  0  0  0
   -7.1770    0.9037   -1.5970 C   0  0  0  0  0  0  0  0  0  0  0  0
   -4.3022    1.1303    0.3058 C   0  0  1  0  0  0  0  0  0  0  0  0
   -4.8169    2.4327    0.1838 O   0  0  0  0  0  0  0  0  0  0  0  0
   -3.9819   -2.8839    1.6915 C   0  0  0  0  0  0  0  0  0  0  0  0
   -3.2554   -3.2435    2.8273 C   0  0  0  0  0  0  0  0  0  0  0  0
   -3.1172   -4.5896    3.1577 O   0  0  0  0  0  0  0  0  0  0  0  0
   -2.6871   -2.2501    3.6314 C   0  0  0  0  0  0  0  0  0  0  0  0
   -2.8347   -0.8964    3.2988 C   0  0  0  0  0  0  0  0  0  0  0  0
   -2.2951    0.0799    4.1364 O   0  0  0  0  0  0  0  0  0  0  0  0
    7.1726    2.8507    0.0730 H   0  0  0  0  0  0  0  0  0  0  0  0
    6.3954    4.4277    1.3789 H   0  0  0  0  0  0  0  0  0  0  0  0
    6.8128    0.8589    1.4134 H   0  0  0  0  0  0  0  0  0  0  0  0
    6.7372    2.2771    2.5139 H   0  0  0  0  0  0  0  0  0  0  0  0
    5.0612    2.9654   -1.3578 H   0  0  0  0  0  0  0  0  0  0  0  0
    4.8437   -0.5812   -0.1957 H   0  0  0  0  0  0  0  0  0  0  0  0
    5.9100   -2.4309   -1.3798 H   0  0  0  0  0  0  0  0  0  0  0  0
    7.4825   -3.1872   -3.1202 H   0  0  0  0  0  0  0  0  0  0  0  0
    8.5746    1.3415   -4.3084 H   0  0  0  0  0  0  0  0  0  0  0  0
    7.0420    2.2367   -2.6189 H   0  0  0  0  0  0  0  0  0  0  0  0
    0.8863   -0.4224    4.2851 H   0  0  0  0  0  0  0  0  0  0  0  0
    3.2388   -0.1116    4.7999 H   0  0  0  0  0  0  0  0  0  0  0  0
    6.6706    0.7296    4.0978 H   0  0  0  0  0  0  0  0  0  0  0  0
    1.5558    1.6806   -0.1936 H   0  0  0  0  0  0  0  0  0  0  0  0
   -0.3665    0.3037   -1.4096 H   0  0  0  0  0  0  0  0  0  0  0  0
   -0.6972   -1.2248   -3.1700 H   0  0  0  0  0  0  0  0  0  0  0  0
   -1.2888   -3.4581   -4.0055 H   0  0  0  0  0  0  0  0  0  0  0  0
   -1.8218   -5.8133   -3.5096 H   0  0  0  0  0  0  0  0  0  0  0  0
   -1.3028   -5.0915    1.2133 H   0  0  0  0  0  0  0  0  0  0  0  0
   -0.8266   -2.7093    0.8777 H   0  0  0  0  0  0  0  0  0  0  0  0
    1.0056   -1.1116    0.9597 H   0  0  0  0  0  0  0  0  0  0  0  0
    2.0874   -1.7128   -0.8132 H   0  0  0  0  0  0  0  0  0  0  0  0
   -4.2571    3.3967    2.8428 H   0  0  0  0  0  0  0  0  0  0  0  0
   -0.8588    4.5008    3.0154 H   0  0  0  0  0  0  0  0  0  0  0  0
    1.5135    4.4918    2.4929 H   0  0  0  0  0  0  0  0  0  0  0  0
   -4.4013    1.3404    2.4602 H   0  0  0  0  0  0  0  0  0  0  0  0
   -6.2471    0.3020    0.7872 H   0  0  0  0  0  0  0  0  0  0  0  0
   -4.2808   -0.7642   -2.2794 H   0  0  0  0  0  0  0  0  0  0  0  0
   -5.1341   -0.5207   -4.5713 H   0  0  0  0  0  0  0  0  0  0  0  0
   -6.8930    0.3037   -6.0793 H   0  0  0  0  0  0  0  0  0  0  0  0
   -9.2666    1.8369   -4.0302 H   0  0  0  0  0  0  0  0  0  0  0  0
   -7.7478    1.3141   -0.7729 H   0  0  0  0  0  0  0  0  0  0  0  0
   -3.5238    0.9604   -0.4747 H   0  0  0  0  0  0  0  0  0  0  0  0
   -4.0529    3.0265   -0.0381 H   0  0  0  0  0  0  0  0  0  0  0  0
   -4.4396   -3.6514    1.0800 H   0  0  0  0  0  0  0  0  0  0  0  0
   -2.5969   -4.8836    3.9760 H   0  0  0  0  0  0  0  0  0  0  0  0
   -2.1385   -2.5292    4.5221 H   0  0  0  0  0  0  0  0  0  0  0  0
   -1.7892   -0.1621    4.9802 H   0  0  0  0  0  0  0  0  0  0  0  0
  1  2  1  0
  1  3  1  0
  3  4  1  0
  4  5  2  0
  5  6  1  0
  6  7  1  0
  7  8  1  0
  8  9  2  0
  9 10  1  0
 10 11  2  0
 11 12  1  0
 11 13  1  0
 13 14  1  0
 13 15  2  0
  5 16  1  0
 16 17  2  0
 17 18  1  0
 17 19  1  0
 19 20  2  0
 20 21  1  0
 16 22  1  0
 22 23  1  0
 23 24  2  0
 24 25  1  0
 25 26  1  0
 26 27  1  0
 27 28  2  0
 28 29  1  0
 29 30  2  0
 30 31  1  0
 30 32  1  0
 32 33  1  0
 32 34  2  0
 26 35  1  0
 35 36  1  0
 24 37  1  0
 37 38  2  0
 38 39  1  0
 38 40  1  0
 40 41  2  0
 41 42  1  0
 37 43  1  0
 43 44  1  0
 44 45  2  0
 45 46  1  0
 46 47  1  0
 47 48  1  0
 48 49  2  0
 49 50  1  0
 50 51  2  0
 51 52  1  0
 51 53  1  0
 53 54  1  0
 53 55  2  0
 47 56  1  0
 56 57  1  0
 45 58  1  0
 58 59  2  0
 59 60  1  0
 59 61  1  0
 61 62  2  0
 62 63  1  0
  7  1  1  0
 15  8  1  0
 35 22  1  0
 56 43  1  0
 20  4  1  0
 41 23  1  0
 62 44  1  0
 34 27  1  0
 55 48  1  0
  1 64  1  6
  2 65  1  0
  3 66  1  0
  3 67  1  0
  7 68  1  6
  9 69  1  0
 10 70  1  0
 12 71  1  0
 14 72  1  0
 15 73  1  0
 18 74  1  0
 19 75  1  0
 21 76  1  0
 22 77  1  6
 26 78  1  6
 28 79  1  0
 29 80  1  0
 31 81  1  0
 33 82  1  0
 34 83  1  0
 35 84  1  1
 36 85  1  0
 39 86  1  0
 40 87  1  0
 42 88  1  0
 43 89  1  1
 47 90  1  1
 49 91  1  0
 50 92  1  0
 52 93  1  0
 54 94  1  0
 55 95  1  0
 56 96  1  6
 57 97  1  0
 58 98  1  0
 60 99  1  0
 61100  1  0
 63101  1  0
M  END
>  <LIG_ID>  (104) 
103

>  <_smiles>  (104) 
[H][C@]1(O)CC2=C(O[C@]1([H])C1=CC=C(O)C(O)=C1)C(=C(O)C=C2O)[C@]1([H])C2=C(O[C@]([H])(C3=CC=C(O)C(O)=C3)[C@@]1([H])O)C(=C(O)C=C2O)[C@]1([H])C2=C(O[C@]([H])(C3=CC=C(O)C(O)=C3)[C@@]1([H])O)C=C(O)C=C2O

>  <_name>  (104) 
Procyanidin trimer C2

>  <_molecular_weight>  (104) 
866.772

>  <_formula>  (104) 
C45H38O18

>  <_logP>  (104) 
4.443900000000014

>  <_molecular_wt_calculated>  (104) 
866.7810000000014

>  <_havy_atom_count>  (104) 
63

>  <_hydrogen_acceptors>  (104) 
18

>  <_hydrogen_donors>  (104) 
15

>  <_rotatable_bonds>  (104) 
20

>  <_amide_bonds>  (104) 
0

>  <_ring_count>  (104) 
9

$$$$
(-)-Epicatechin-(2a-7)(4a-8)-epicatechin 3-O-galactoside
     RDKit          3D

 85 92  0  0  0  0  0  0  0  0999 V2000
   -2.3651    2.0753    1.7491 C   0  0  1  0  0  0  0  0  0  0  0  0
   -3.0744    2.9789    2.7745 C   0  0  0  0  0  0  0  0  0  0  0  0
   -3.1076    4.3044    2.3210 O   0  0  0  0  0  0  0  0  0  0  0  0
   -1.9999    0.8512    2.3887 O   0  0  0  0  0  0  0  0  0  0  0  0
   -2.6924   -0.3116    1.9422 C   0  0  2  0  0  0  0  0  0  0  0  0
   -2.1022   -0.8310    0.7645 O   0  0  0  0  0  0  0  0  0  0  0  0
   -0.7702   -1.2717    0.9891 C   0  0  2  0  0  0  0  0  0  0  0  0
    0.2146   -0.3437    0.2435 C   0  0  2  0  0  0  0  0  0  0  0  0
   -0.1264   -0.3302   -1.2393 C   0  0  0  0  0  0  0  0  0  0  0  0
   -0.5493   -1.5483   -1.8197 C   0  0  0  0  0  0  0  0  0  0  0  0
   -0.8204   -2.6657   -1.0154 O   0  0  0  0  0  0  0  0  0  0  0  0
   -0.5896   -2.6905    0.4006 C   0  0  1  0  0  0  0  0  0  0  0  0
    0.7569   -3.1241    0.6209 O   0  0  0  0  0  0  0  0  0  0  0  0
    1.8469   -2.2481    0.5477 C   0  0  0  0  0  0  0  0  0  0  0  0
    1.6352   -0.8598    0.4118 C   0  0  0  0  0  0  0  0  0  0  0  0
    2.7459    0.0019    0.3358 C   0  0  0  0  0  0  0  0  0  0  0  0
    4.0529   -0.5212    0.4089 C   0  0  0  0  0  0  0  0  0  0  0  0
    5.2437    0.3850    0.2340 C   0  0  0  0  0  0  0  0  0  0  0  0
    4.9132    1.8337    0.6095 C   0  0  0  0  0  0  0  0  0  0  0  0
    3.6119    2.3075   -0.0606 C   0  0  2  0  0  0  0  0  0  0  0  0
    2.5507    1.3807    0.1846 O   0  0  0  0  0  0  0  0  0  0  0  0
    3.7958    2.5614   -1.5460 C   0  0  0  0  0  0  0  0  0  0  0  0
    4.3117    3.7961   -1.9722 C   0  0  0  0  0  0  0  0  0  0  0  0
    4.5038    4.0700   -3.3320 C   0  0  0  0  0  0  0  0  0  0  0  0
    5.0164    5.3217   -3.6789 O   0  0  0  0  0  0  0  0  0  0  0  0
    4.1784    3.0848   -4.2934 C   0  0  0  0  0  0  0  0  0  0  0  0
    4.3348    3.2879   -5.6660 O   0  0  0  0  0  0  0  0  0  0  0  0
    3.6790    1.8499   -3.8681 C   0  0  0  0  0  0  0  0  0  0  0  0
    3.4956    1.5837   -2.5107 C   0  0  0  0  0  0  0  0  0  0  0  0
    4.2420   -1.9027    0.5464 C   0  0  0  0  0  0  0  0  0  0  0  0
    3.1436   -2.7589    0.6274 C   0  0  0  0  0  0  0  0  0  0  0  0
   -1.5504   -3.6555    1.0707 C   0  0  0  0  0  0  0  0  0  0  0  0
   -1.2279   -4.2264    2.3162 C   0  0  0  0  0  0  0  0  0  0  0  0
   -2.1409   -5.0588    2.9789 C   0  0  0  0  0  0  0  0  0  0  0  0
   -1.8116   -5.6303    4.2067 O   0  0  0  0  0  0  0  0  0  0  0  0
   -3.3937   -5.3143    2.4092 C   0  0  0  0  0  0  0  0  0  0  0  0
   -4.2986   -6.1424    3.0709 O   0  0  0  0  0  0  0  0  0  0  0  0
   -3.7323   -4.7313    1.1822 C   0  0  0  0  0  0  0  0  0  0  0  0
   -2.8232   -3.9017    0.5218 C   0  0  0  0  0  0  0  0  0  0  0  0
   -0.7405   -1.6446   -3.1993 C   0  0  0  0  0  0  0  0  0  0  0  0
   -0.5253   -0.5374   -4.0198 C   0  0  0  0  0  0  0  0  0  0  0  0
   -0.7041   -0.6569   -5.3961 O   0  0  0  0  0  0  0  0  0  0  0  0
   -0.1445    0.6838   -3.4538 C   0  0  0  0  0  0  0  0  0  0  0  0
    0.0321    0.8090   -2.0711 C   0  0  0  0  0  0  0  0  0  0  0  0
    0.3386    2.0785   -1.5767 O   0  0  0  0  0  0  0  0  0  0  0  0
   -4.1916   -0.0499    1.6987 C   0  0  2  0  0  0  0  0  0  0  0  0
   -4.8387   -1.2413    1.3295 O   0  0  0  0  0  0  0  0  0  0  0  0
   -4.4022    1.0116    0.5948 C   0  0  1  0  0  0  0  0  0  0  0  0
   -5.5274    1.7978    0.8972 O   0  0  0  0  0  0  0  0  0  0  0  0
   -3.1548    1.9088    0.4196 C   0  0  1  0  0  0  0  0  0  0  0  0
   -3.5010    3.1617   -0.1147 O   0  0  0  0  0  0  0  0  0  0  0  0
   -1.4127    2.5863    1.4864 H   0  0  0  0  0  0  0  0  0  0  0  0
   -4.1068    2.6190    2.9697 H   0  0  0  0  0  0  0  0  0  0  0  0
   -2.5120    2.9414    3.7344 H   0  0  0  0  0  0  0  0  0  0  0  0
   -3.5828    4.8238    3.0206 H   0  0  0  0  0  0  0  0  0  0  0  0
   -2.6376   -1.0733    2.7541 H   0  0  0  0  0  0  0  0  0  0  0  0
   -0.4830   -1.3010    2.0703 H   0  0  0  0  0  0  0  0  0  0  0  0
    0.1214    0.6562    0.7055 H   0  0  0  0  0  0  0  0  0  0  0  0
    5.5761    0.3409   -0.8253 H   0  0  0  0  0  0  0  0  0  0  0  0
    6.0852    0.0354    0.8710 H   0  0  0  0  0  0  0  0  0  0  0  0
    5.7593    2.4980    0.3281 H   0  0  0  0  0  0  0  0  0  0  0  0
    4.7892    1.8967    1.7130 H   0  0  0  0  0  0  0  0  0  0  0  0
    3.3173    3.2682    0.4157 H   0  0  0  0  0  0  0  0  0  0  0  0
    4.5661    4.5552   -1.2420 H   0  0  0  0  0  0  0  0  0  0  0  0
    5.1975    5.6143   -4.6282 H   0  0  0  0  0  0  0  0  0  0  0  0
    4.6805    4.1444   -6.0742 H   0  0  0  0  0  0  0  0  0  0  0  0
    3.4309    1.0885   -4.5970 H   0  0  0  0  0  0  0  0  0  0  0  0
    3.1132    0.6143   -2.2265 H   0  0  0  0  0  0  0  0  0  0  0  0
    5.2418   -2.3175    0.5828 H   0  0  0  0  0  0  0  0  0  0  0  0
    3.2998   -3.8246    0.7356 H   0  0  0  0  0  0  0  0  0  0  0  0
   -0.2717   -4.0174    2.7796 H   0  0  0  0  0  0  0  0  0  0  0  0
   -0.9138   -5.4630    4.6458 H   0  0  0  0  0  0  0  0  0  0  0  0
   -5.2135   -6.3434    2.6845 H   0  0  0  0  0  0  0  0  0  0  0  0
   -4.7052   -4.9126    0.7432 H   0  0  0  0  0  0  0  0  0  0  0  0
   -3.1224   -3.4418   -0.4115 H   0  0  0  0  0  0  0  0  0  0  0  0
   -1.0593   -2.5837   -3.6341 H   0  0  0  0  0  0  0  0  0  0  0  0
   -0.5584    0.1287   -6.0194 H   0  0  0  0  0  0  0  0  0  0  0  0
   -0.0012    1.5487   -4.0896 H   0  0  0  0  0  0  0  0  0  0  0  0
    0.3335    2.3217   -0.5975 H   0  0  0  0  0  0  0  0  0  0  0  0
   -4.6317    0.3242    2.6529 H   0  0  0  0  0  0  0  0  0  0  0  0
   -4.9076   -1.7989    2.1482 H   0  0  0  0  0  0  0  0  0  0  0  0
   -4.5703    0.5009   -0.3835 H   0  0  0  0  0  0  0  0  0  0  0  0
   -6.3250    1.2272    0.7418 H   0  0  0  0  0  0  0  0  0  0  0  0
   -2.4637    1.4098   -0.2993 H   0  0  0  0  0  0  0  0  0  0  0  0
   -3.7706    3.0067   -1.0578 H   0  0  0  0  0  0  0  0  0  0  0  0
  1  2  1  0
  2  3  1  0
  1  4  1  0
  4  5  1  0
  5  6  1  0
  6  7  1  0
  7  8  1  0
  8  9  1  0
  9 10  2  0
 10 11  1  0
 11 12  1  0
 12 13  1  0
 13 14  1  0
 14 15  2  0
 15 16  1  0
 16 17  2  0
 17 18  1  0
 18 19  1  0
 19 20  1  0
 20 21  1  0
 20 22  1  0
 22 23  2  0
 23 24  1  0
 24 25  1  0
 24 26  2  0
 26 27  1  0
 26 28  1  0
 28 29  2  0
 17 30  1  0
 30 31  2  0
 12 32  1  1
 32 33  2  0
 33 34  1  0
 34 35  1  0
 34 36  2  0
 36 37  1  0
 36 38  1  0
 38 39  2  0
 10 40  1  0
 40 41  2  0
 41 42  1  0
 41 43  1  0
 43 44  2  0
 44 45  1  0
  5 46  1  0
 46 47  1  0
 46 48  1  0
 48 49  1  0
 48 50  1  0
 50 51  1  0
 50  1  1  0
 12  7  1  0
 31 14  1  0
 39 32  1  0
 15  8  1  0
 21 16  1  0
 29 22  1  0
 44  9  1  0
  1 52  1  6
  2 53  1  0
  2 54  1  0
  3 55  1  0
  5 56  1  1
  7 57  1  1
  8 58  1  1
 18 59  1  0
 18 60  1  0
 19 61  1  0
 19 62  1  0
 20 63  1  1
 23 64  1  0
 25 65  1  0
 27 66  1  0
 28 67  1  0
 29 68  1  0
 30 69  1  0
 31 70  1  0
 33 71  1  0
 35 72  1  0
 37 73  1  0
 38 74  1  0
 39 75  1  0
 40 76  1  0
 42 77  1  0
 43 78  1  0
 45 79  1  0
 46 80  1  1
 47 81  1  0
 48 82  1  6
 49 83  1  0
 50 84  1  6
 51 85  1  0
M  END
>  <LIG_ID>  (105) 
104

>  <_smiles>  (105) 
[H][C@]1(CO)O[C@]([H])(O[C@]2([H])[C@]3([H])C4=C(O[C@]2(OC2=C3C3=C(CC[C@]([H])(O3)C3=CC(O)=C(O)C=C3)C=C2)C2=CC(O)=C(O)C=C2)C=C(O)C=C4O)[C@]([H])(O)[C@@]([H])(O)[C@@]1([H])O

>  <_name>  (105) 
(-)-Epicatechin-(2a-7)(4a-8)-epicatechin 3-O-galactoside

>  <_molecular_weight>  (105) 
706.646

>  <_formula>  (105) 
C36H34O15

>  <_logP>  (105) 
1.9413000000000022

>  <_molecular_wt_calculated>  (105) 
706.6530000000016

>  <_havy_atom_count>  (105) 
51

>  <_hydrogen_acceptors>  (105) 
15

>  <_hydrogen_donors>  (105) 
10

>  <_rotatable_bonds>  (105) 
15

>  <_amide_bonds>  (105) 
0

>  <_ring_count>  (105) 
8

$$$$
Cinnamtannin A2
     RDKit          3D

134145  0  0  0  0  0  0  0  0999 V2000
    9.9117   -0.5675    2.2927 O   0  0  0  0  0  0  0  0  0  0  0  0
    8.6289   -0.0218    2.4644 C   0  0  2  0  0  0  0  0  0  0  0  0
    7.9628   -0.6046    3.7212 C   0  0  0  0  0  0  0  0  0  0  0  0
    6.5051   -0.2119    3.8342 C   0  0  0  0  0  0  0  0  0  0  0  0
    5.8263   -0.2851    5.0703 C   0  0  0  0  0  0  0  0  0  0  0  0
    6.4412   -0.7537    6.2340 O   0  0  0  0  0  0  0  0  0  0  0  0
    4.4916    0.1111    5.1524 C   0  0  0  0  0  0  0  0  0  0  0  0
    3.7951    0.5347    4.0173 C   0  0  0  0  0  0  0  0  0  0  0  0
    2.4638    0.9346    4.1397 O   0  0  0  0  0  0  0  0  0  0  0  0
    4.4330    0.5450    2.7574 C   0  0  0  0  0  0  0  0  0  0  0  0
    3.6827    0.9899    1.5004 C   0  0  2  0  0  0  0  0  0  0  0  0
    3.5364    2.5329    1.5214 C   0  0  1  0  0  0  0  0  0  0  0  0
    4.7913    3.1473    1.3608 O   0  0  0  0  0  0  0  0  0  0  0  0
    2.5721    3.0279    0.4315 C   0  0  2  0  0  0  0  0  0  0  0  0
    1.3272    2.3384    0.5291 O   0  0  0  0  0  0  0  0  0  0  0  0
    1.2105    0.9865    0.8820 C   0  0  0  0  0  0  0  0  0  0  0  0
   -0.0423    0.3460    0.7543 C   0  0  0  0  0  0  0  0  0  0  0  0
   -1.2750    1.1514    0.3396 C   0  0  2  0  0  0  0  0  0  0  0  0
   -2.1451    1.4106    1.5975 C   0  0  1  0  0  0  0  0  0  0  0  0
   -1.4756    2.2080    2.5458 O   0  0  0  0  0  0  0  0  0  0  0  0
   -3.5206    1.9990    1.2373 C   0  0  2  0  0  0  0  0  0  0  0  0
   -4.1598    1.1669    0.2705 O   0  0  0  0  0  0  0  0  0  0  0  0
   -3.4802    0.5061   -0.7652 C   0  0  0  0  0  0  0  0  0  0  0  0
   -4.2312   -0.1177   -1.7892 C   0  0  0  0  0  0  0  0  0  0  0  0
   -5.7600   -0.1309   -1.6704 C   0  0  2  0  0  0  0  0  0  0  0  0
   -6.2476   -1.3195   -0.7998 C   0  0  1  0  0  0  0  0  0  0  0  0
   -7.5183   -1.0264   -0.2727 O   0  0  0  0  0  0  0  0  0  0  0  0
   -6.3290   -2.6049   -1.6435 C   0  0  2  0  0  0  0  0  0  0  0  0
   -7.1687   -2.3946   -2.7800 O   0  0  0  0  0  0  0  0  0  0  0  0
   -7.1599   -1.1964   -3.5030 C   0  0  0  0  0  0  0  0  0  0  0  0
   -7.8394   -1.1291   -4.7223 C   0  0  0  0  0  0  0  0  0  0  0  0
   -7.8293    0.0532   -5.4721 C   0  0  0  0  0  0  0  0  0  0  0  0
   -8.4989    0.1256   -6.6915 O   0  0  0  0  0  0  0  0  0  0  0  0
   -7.1398    1.1722   -4.9970 C   0  0  0  0  0  0  0  0  0  0  0  0
   -6.4639    1.1221   -3.7700 C   0  0  0  0  0  0  0  0  0  0  0  0
   -5.7769    2.2441   -3.3055 O   0  0  0  0  0  0  0  0  0  0  0  0
   -6.4792   -0.0630   -3.0078 C   0  0  0  0  0  0  0  0  0  0  0  0
   -6.8276   -3.7718   -0.8215 C   0  0  0  0  0  0  0  0  0  0  0  0
   -8.2031   -4.0291   -0.6883 C   0  0  0  0  0  0  0  0  0  0  0  0
   -8.6497   -5.0884    0.1055 C   0  0  0  0  0  0  0  0  0  0  0  0
   -7.7311   -5.8974    0.7876 C   0  0  0  0  0  0  0  0  0  0  0  0
   -8.1799   -6.9541    1.5782 O   0  0  0  0  0  0  0  0  0  0  0  0
   -6.3552   -5.6365    0.6743 C   0  0  0  0  0  0  0  0  0  0  0  0
   -5.4159   -6.4177    1.3467 O   0  0  0  0  0  0  0  0  0  0  0  0
   -5.9112   -4.5752   -0.1225 C   0  0  0  0  0  0  0  0  0  0  0  0
   -3.5390   -0.7381   -2.8578 C   0  0  0  0  0  0  0  0  0  0  0  0
   -4.2241   -1.4129   -3.8672 O   0  0  0  0  0  0  0  0  0  0  0  0
   -2.1451   -0.6687   -2.9229 C   0  0  0  0  0  0  0  0  0  0  0  0
   -1.4090   -0.0393   -1.9186 C   0  0  0  0  0  0  0  0  0  0  0  0
   -0.0237    0.0615   -2.0468 O   0  0  0  0  0  0  0  0  0  0  0  0
   -2.0655    0.4910   -0.7895 C   0  0  0  0  0  0  0  0  0  0  0  0
   -3.4623    3.4481    0.7771 C   0  0  0  0  0  0  0  0  0  0  0  0
   -3.2741    3.7978   -0.5738 C   0  0  0  0  0  0  0  0  0  0  0  0
   -3.1984    5.1394   -0.9551 C   0  0  0  0  0  0  0  0  0  0  0  0
   -3.3031    6.1542   -0.0006 C   0  0  0  0  0  0  0  0  0  0  0  0
   -3.2226    7.4840   -0.4128 O   0  0  0  0  0  0  0  0  0  0  0  0
   -3.4852    5.8220    1.3512 C   0  0  0  0  0  0  0  0  0  0  0  0
   -3.5865    6.8288    2.3101 O   0  0  0  0  0  0  0  0  0  0  0  0
   -3.5627    4.4752    1.7329 C   0  0  0  0  0  0  0  0  0  0  0  0
   -0.1401   -1.0329    1.0428 C   0  0  0  0  0  0  0  0  0  0  0  0
   -1.3694   -1.6885    0.9613 O   0  0  0  0  0  0  0  0  0  0  0  0
    1.0011   -1.7569    1.3952 C   0  0  0  0  0  0  0  0  0  0  0  0
    2.2406   -1.1245    1.5168 C   0  0  0  0  0  0  0  0  0  0  0  0
    3.3701   -1.8860    1.8167 O   0  0  0  0  0  0  0  0  0  0  0  0
    2.3440    0.2710    1.3324 C   0  0  0  0  0  0  0  0  0  0  0  0
    3.1559    2.9403   -0.9712 C   0  0  0  0  0  0  0  0  0  0  0  0
    3.8690    4.0369   -1.4861 C   0  0  0  0  0  0  0  0  0  0  0  0
    4.4382    3.9813   -2.7603 C   0  0  0  0  0  0  0  0  0  0  0  0
    4.3109    2.8262   -3.5412 C   0  0  0  0  0  0  0  0  0  0  0  0
    4.8792    2.7733   -4.8130 O   0  0  0  0  0  0  0  0  0  0  0  0
    3.6098    1.7197   -3.0359 C   0  0  0  0  0  0  0  0  0  0  0  0
    3.4687    0.5525   -3.7860 O   0  0  0  0  0  0  0  0  0  0  0  0
    3.0413    1.7785   -1.7589 C   0  0  0  0  0  0  0  0  0  0  0  0
    5.7932    0.1732    2.6749 C   0  0  0  0  0  0  0  0  0  0  0  0
    6.4361    0.1888    1.4271 O   0  0  0  0  0  0  0  0  0  0  0  0
    7.7705   -0.2727    1.2119 C   0  0  2  0  0  0  0  0  0  0  0  0
    7.7855   -1.7238    0.7592 C   0  0  0  0  0  0  0  0  0  0  0  0
    8.7589   -2.1479   -0.1623 C   0  0  0  0  0  0  0  0  0  0  0  0
    8.8079   -3.4790   -0.5830 C   0  0  0  0  0  0  0  0  0  0  0  0
    7.8893   -4.4107   -0.0844 C   0  0  0  0  0  0  0  0  0  0  0  0
    7.9340   -5.7396   -0.5020 O   0  0  0  0  0  0  0  0  0  0  0  0
    6.9210   -4.0056    0.8415 C   0  0  0  0  0  0  0  0  0  0  0  0
    6.0116   -4.9365    1.3406 O   0  0  0  0  0  0  0  0  0  0  0  0
    6.8717   -2.6694    1.2633 C   0  0  0  0  0  0  0  0  0  0  0  0
   10.4933   -0.1561    2.9842 H   0  0  0  0  0  0  0  0  0  0  0  0
    8.7125    1.0837    2.5940 H   0  0  0  0  0  0  0  0  0  0  0  0
    8.5271   -0.2191    4.5967 H   0  0  0  0  0  0  0  0  0  0  0  0
    8.0405   -1.7130    3.7160 H   0  0  0  0  0  0  0  0  0  0  0  0
    7.3736   -1.1448    6.2540 H   0  0  0  0  0  0  0  0  0  0  0  0
    3.9863    0.0762    6.1097 H   0  0  0  0  0  0  0  0  0  0  0  0
    1.9847    0.9296    5.0325 H   0  0  0  0  0  0  0  0  0  0  0  0
    4.2682    0.7256    0.5947 H   0  0  0  0  0  0  0  0  0  0  0  0
    3.0913    2.8465    2.4955 H   0  0  0  0  0  0  0  0  0  0  0  0
    5.2243    3.1658    2.2539 H   0  0  0  0  0  0  0  0  0  0  0  0
    2.3549    4.0985    0.6423 H   0  0  0  0  0  0  0  0  0  0  0  0
   -0.9683    2.1370   -0.0695 H   0  0  0  0  0  0  0  0  0  0  0  0
   -2.3498    0.4326    2.0854 H   0  0  0  0  0  0  0  0  0  0  0  0
   -1.1275    3.0130    2.0818 H   0  0  0  0  0  0  0  0  0  0  0  0
   -4.1503    1.9584    2.1534 H   0  0  0  0  0  0  0  0  0  0  0  0
   -6.0663    0.7950   -1.1354 H   0  0  0  0  0  0  0  0  0  0  0  0
   -5.5308   -1.4922    0.0389 H   0  0  0  0  0  0  0  0  0  0  0  0
   -7.3762   -0.4247    0.5043 H   0  0  0  0  0  0  0  0  0  0  0  0
   -5.3109   -2.8509   -2.0144 H   0  0  0  0  0  0  0  0  0  0  0  0
   -8.3671   -2.0001   -5.0902 H   0  0  0  0  0  0  0  0  0  0  0  0
   -9.0074   -0.6677   -7.0645 H   0  0  0  0  0  0  0  0  0  0  0  0
   -7.1310    2.0829   -5.5828 H   0  0  0  0  0  0  0  0  0  0  0  0
   -5.7481    3.1072   -3.8354 H   0  0  0  0  0  0  0  0  0  0  0  0
   -8.9317   -3.4086   -1.1948 H   0  0  0  0  0  0  0  0  0  0  0  0
   -9.7120   -5.2772    0.1938 H   0  0  0  0  0  0  0  0  0  0  0  0
   -9.1669   -7.1613    1.6767 H   0  0  0  0  0  0  0  0  0  0  0  0
   -5.6861   -7.1959    1.9361 H   0  0  0  0  0  0  0  0  0  0  0  0
   -4.8486   -4.3759   -0.1939 H   0  0  0  0  0  0  0  0  0  0  0  0
   -3.7409   -1.8577   -4.6388 H   0  0  0  0  0  0  0  0  0  0  0  0
   -1.6273   -1.1073   -3.7669 H   0  0  0  0  0  0  0  0  0  0  0  0
    0.4677   -0.3120   -2.8504 H   0  0  0  0  0  0  0  0  0  0  0  0
   -3.1841    3.0455   -1.3422 H   0  0  0  0  0  0  0  0  0  0  0  0
   -3.0556    5.3916   -1.9983 H   0  0  0  0  0  0  0  0  0  0  0  0
   -3.2922    8.2549    0.2406 H   0  0  0  0  0  0  0  0  0  0  0  0
   -3.7171    6.6156    3.2921 H   0  0  0  0  0  0  0  0  0  0  0  0
   -3.6951    4.2285    2.7794 H   0  0  0  0  0  0  0  0  0  0  0  0
   -1.4607   -2.6786    1.1560 H   0  0  0  0  0  0  0  0  0  0  0  0
    0.9246   -2.8223    1.5729 H   0  0  0  0  0  0  0  0  0  0  0  0
    3.3176   -2.8886    1.9528 H   0  0  0  0  0  0  0  0  0  0  0  0
    3.9875    4.9386   -0.8979 H   0  0  0  0  0  0  0  0  0  0  0  0
    4.9811    4.8378   -3.1395 H   0  0  0  0  0  0  0  0  0  0  0  0
    5.3904    3.5586   -5.1989 H   0  0  0  0  0  0  0  0  0  0  0  0
    3.8613    0.4589   -4.7150 H   0  0  0  0  0  0  0  0  0  0  0  0
    2.5178    0.9088   -1.3943 H   0  0  0  0  0  0  0  0  0  0  0  0
    8.1914    0.3473    0.3898 H   0  0  0  0  0  0  0  0  0  0  0  0
    9.4835   -1.4457   -0.5560 H   0  0  0  0  0  0  0  0  0  0  0  0
    9.5626   -3.7861   -1.2959 H   0  0  0  0  0  0  0  0  0  0  0  0
    8.6240   -6.0621   -1.1705 H   0  0  0  0  0  0  0  0  0  0  0  0
    5.3012   -4.6757    2.0145 H   0  0  0  0  0  0  0  0  0  0  0  0
    6.1213   -2.3818    1.9841 H   0  0  0  0  0  0  0  0  0  0  0  0
  1  2  1  0
  2  3  1  0
  3  4  1  0
  4  5  2  0
  5  6  1  0
  5  7  1  0
  7  8  2  0
  8  9  1  0
  8 10  1  0
 10 11  1  0
 11 12  1  0
 12 13  1  0
 12 14  1  0
 14 15  1  0
 15 16  1  0
 16 17  2  0
 17 18  1  0
 18 19  1  0
 19 20  1  0
 19 21  1  0
 21 22  1  0
 22 23  1  0
 23 24  2  0
 24 25  1  0
 25 26  1  0
 26 27  1  0
 26 28  1  0
 28 29  1  0
 29 30  1  0
 30 31  2  0
 31 32  1  0
 32 33  1  0
 32 34  2  0
 34 35  1  0
 35 36  1  0
 35 37  2  0
 28 38  1  0
 38 39  2  0
 39 40  1  0
 40 41  2  0
 41 42  1  0
 41 43  1  0
 43 44  1  0
 43 45  2  0
 24 46  1  0
 46 47  1  0
 46 48  2  0
 48 49  1  0
 49 50  1  0
 49 51  2  0
 21 52  1  0
 52 53  2  0
 53 54  1  0
 54 55  2  0
 55 56  1  0
 55 57  1  0
 57 58  1  0
 57 59  2  0
 17 60  1  0
 60 61  1  0
 60 62  2  0
 62 63  1  0
 63 64  1  0
 63 65  2  0
 14 66  1  0
 66 67  2  0
 67 68  1  0
 68 69  2  0
 69 70  1  0
 69 71  1  0
 71 72  1  0
 71 73  2  0
 10 74  2  0
 74 75  1  0
 75 76  1  0
 76 77  1  0
 77 78  2  0
 78 79  1  0
 79 80  2  0
 80 81  1  0
 80 82  1  0
 82 83  1  0
 82 84  2  0
 76  2  1  0
 84 77  1  0
 74  4  1  0
 65 11  1  0
 73 66  1  0
 65 16  1  0
 51 18  1  0
 59 52  1  0
 51 23  1  0
 37 25  1  0
 45 38  1  0
 37 30  1  0
  1 85  1  0
  2 86  1  1
  3 87  1  0
  3 88  1  0
  6 89  1  0
  7 90  1  0
  9 91  1  0
 11 92  1  6
 12 93  1  1
 13 94  1  0
 14 95  1  1
 18 96  1  6
 19 97  1  1
 20 98  1  0
 21 99  1  1
 25100  1  1
 26101  1  1
 27102  1  0
 28103  1  6
 31104  1  0
 33105  1  0
 34106  1  0
 36107  1  0
 39108  1  0
 40109  1  0
 42110  1  0
 44111  1  0
 45112  1  0
 47113  1  0
 48114  1  0
 50115  1  0
 53116  1  0
 54117  1  0
 56118  1  0
 58119  1  0
 59120  1  0
 61121  1  0
 62122  1  0
 64123  1  0
 67124  1  0
 68125  1  0
 70126  1  0
 72127  1  0
 73128  1  0
 76129  1  6
 78130  1  0
 79131  1  0
 81132  1  0
 83133  1  0
 84134  1  0
M  END
>  <LIG_ID>  (106) 
105

>  <_smiles>  (106) 
O[C@@H]1CC2=C(O)C=C(O)C([C@@H]3[C@@H](O)[C@H](OC4=C([C@@H]5[C@@H](O)[C@H](OC6=C([C@@H]7[C@@H](O)[C@H](OC8=CC(O)=CC(O)=C78)C7=CC=C(O)C(O)=C7)C(O)=CC(O)=C56)C5=CC=C(O)C(O)=C5)C(O)=CC(O)=C34)C3=CC=C(O)C(O)=C3)=C2O[C@@H]1C1=CC=C(O)C(O)=C1

>  <_name>  (106) 
Cinnamtannin A2

>  <_molecular_weight>  (106) 
1155.02

>  <_formula>  (106) 
C60H50O24

>  <_logP>  (106) 
5.89280000000002

>  <_molecular_wt_calculated>  (106) 
1155.0360000000016

>  <_havy_atom_count>  (106) 
84

>  <_hydrogen_acceptors>  (106) 
24

>  <_hydrogen_donors>  (106) 
20

>  <_rotatable_bonds>  (106) 
27

>  <_amide_bonds>  (106) 
0

>  <_ring_count>  (106) 
12

$$$$
(+)-Catechin 3-O-glucose
     RDKit          3D

 56 59  0  0  0  0  0  0  0  0999 V2000
    4.3768   -1.4463    0.1932 O   0  0  0  0  0  0  0  0  0  0  0  0
    3.9304   -1.0600   -1.0776 C   0  0  0  0  0  0  0  0  0  0  0  0
    3.1157    0.2405   -1.0009 C   0  0  0  0  0  0  0  0  0  0  0  0
    2.1631    0.1535    0.0420 O   0  0  0  0  0  0  0  0  0  0  0  0
    1.1290    1.1247   -0.1133 C   0  0  0  0  0  0  0  0  0  0  0  0
    0.1513    0.6559   -1.0253 O   0  0  0  0  0  0  0  0  0  0  0  0
   -0.5740   -0.4449   -0.4974 C   0  0  0  0  0  0  0  0  0  0  0  0
   -0.4480   -1.6285   -1.4710 C   0  0  0  0  0  0  0  0  0  0  0  0
   -1.4079   -2.7533   -1.1440 C   0  0  0  0  0  0  0  0  0  0  0  0
   -2.5546   -2.4801   -0.3663 C   0  0  0  0  0  0  0  0  0  0  0  0
   -2.8087   -1.1850    0.0977 O   0  0  0  0  0  0  0  0  0  0  0  0
   -2.0553   -0.0568   -0.3463 C   0  0  0  0  0  0  0  0  0  0  0  0
   -2.2159    1.0838    0.6306 C   0  0  0  0  0  0  0  0  0  0  0  0
   -2.1204    0.8585    2.0148 C   0  0  0  0  0  0  0  0  0  0  0  0
   -2.1986    1.9251    2.9172 C   0  0  0  0  0  0  0  0  0  0  0  0
   -2.1025    1.6645    4.2837 O   0  0  0  0  0  0  0  0  0  0  0  0
   -2.3668    3.2352    2.4379 C   0  0  0  0  0  0  0  0  0  0  0  0
   -2.4438    4.3023    3.3315 O   0  0  0  0  0  0  0  0  0  0  0  0
   -2.4526    3.4643    1.0583 C   0  0  0  0  0  0  0  0  0  0  0  0
   -2.3727    2.3975    0.1602 C   0  0  0  0  0  0  0  0  0  0  0  0
   -3.4424   -3.5068   -0.0348 C   0  0  0  0  0  0  0  0  0  0  0  0
   -3.2201   -4.8080   -0.4970 C   0  0  0  0  0  0  0  0  0  0  0  0
   -4.0993   -5.8377   -0.1693 O   0  0  0  0  0  0  0  0  0  0  0  0
   -2.1109   -5.0786   -1.3017 C   0  0  0  0  0  0  0  0  0  0  0  0
   -1.2115   -4.0624   -1.6448 C   0  0  0  0  0  0  0  0  0  0  0  0
   -0.1464   -4.3853   -2.4887 O   0  0  0  0  0  0  0  0  0  0  0  0
    1.6503    2.5145   -0.5945 C   0  0  0  0  0  0  0  0  0  0  0  0
    0.8670    3.5688   -0.0897 O   0  0  0  0  0  0  0  0  0  0  0  0
    3.1490    2.7080   -0.2652 C   0  0  0  0  0  0  0  0  0  0  0  0
    3.3510    2.9036    1.1156 O   0  0  0  0  0  0  0  0  0  0  0  0
    3.9887    1.5184   -0.8202 C   0  0  0  0  0  0  0  0  0  0  0  0
    5.1377    1.2924   -0.0382 O   0  0  0  0  0  0  0  0  0  0  0  0
    4.9007   -2.2785    0.0599 H   0  0  0  0  0  0  0  0  0  0  0  0
    3.2817   -1.8635   -1.4936 H   0  0  0  0  0  0  0  0  0  0  0  0
    4.7963   -0.9224   -1.7638 H   0  0  0  0  0  0  0  0  0  0  0  0
    2.5950    0.3167   -1.9864 H   0  0  0  0  0  0  0  0  0  0  0  0
    0.6716    1.2768    0.8913 H   0  0  0  0  0  0  0  0  0  0  0  0
   -0.2032   -0.7988    0.4973 H   0  0  0  0  0  0  0  0  0  0  0  0
   -0.6450   -1.2847   -2.5099 H   0  0  0  0  0  0  0  0  0  0  0  0
    0.5998   -1.9921   -1.4127 H   0  0  0  0  0  0  0  0  0  0  0  0
   -2.4496    0.2450   -1.3431 H   0  0  0  0  0  0  0  0  0  0  0  0
   -1.9728   -0.1454    2.3939 H   0  0  0  0  0  0  0  0  0  0  0  0
   -2.1510    2.4016    4.9767 H   0  0  0  0  0  0  0  0  0  0  0  0
   -2.5628    5.2559    3.0101 H   0  0  0  0  0  0  0  0  0  0  0  0
   -2.5732    4.4714    0.6799 H   0  0  0  0  0  0  0  0  0  0  0  0
   -2.4213    2.5982   -0.9028 H   0  0  0  0  0  0  0  0  0  0  0  0
   -4.3083   -3.2895    0.5780 H   0  0  0  0  0  0  0  0  0  0  0  0
   -4.9143   -5.6740    0.4102 H   0  0  0  0  0  0  0  0  0  0  0  0
   -1.9522   -6.0835   -1.6731 H   0  0  0  0  0  0  0  0  0  0  0  0
    0.5064   -3.7009   -2.8472 H   0  0  0  0  0  0  0  0  0  0  0  0
    1.5618    2.5509   -1.7036 H   0  0  0  0  0  0  0  0  0  0  0  0
    0.9201    3.5447    0.9008 H   0  0  0  0  0  0  0  0  0  0  0  0
    3.4911    3.6353   -0.7754 H   0  0  0  0  0  0  0  0  0  0  0  0
    2.9824    2.1184    1.5967 H   0  0  0  0  0  0  0  0  0  0  0  0
    4.3440    1.8045   -1.8351 H   0  0  0  0  0  0  0  0  0  0  0  0
    4.8450    0.9360    0.8397 H   0  0  0  0  0  0  0  0  0  0  0  0
  1  2  1  0
  2  3  1  0
  3  4  1  0
  4  5  1  0
  5  6  1  0
  6  7  1  0
  7  8  1  0
  8  9  1  0
  9 10  2  0
 10 11  1  0
 11 12  1  0
 12 13  1  0
 13 14  2  0
 14 15  1  0
 15 16  1  0
 15 17  2  0
 17 18  1  0
 17 19  1  0
 19 20  2  0
 10 21  1  0
 21 22  2  0
 22 23  1  0
 22 24  1  0
 24 25  2  0
 25 26  1  0
  5 27  1  0
 27 28  1  0
 27 29  1  0
 29 30  1  0
 29 31  1  0
 31 32  1  0
 31  3  1  0
 12  7  1  0
 20 13  1  0
 25  9  1  0
  1 33  1  0
  2 34  1  0
  2 35  1  0
  3 36  1  0
  5 37  1  0
  7 38  1  0
  8 39  1  0
  8 40  1  0
 12 41  1  0
 14 42  1  0
 16 43  1  0
 18 44  1  0
 19 45  1  0
 20 46  1  0
 21 47  1  0
 23 48  1  0
 24 49  1  0
 26 50  1  0
 27 51  1  0
 28 52  1  0
 29 53  1  0
 30 54  1  0
 31 55  1  0
 32 56  1  0
M  END
>  <LIG_ID>  (107) 
106

>  <_smiles>  (107) 
OCC1OC(OC2CC3=C(OC2C2=CC(O)=C(O)C=C2)C=C(O)C=C3O)C(O)C(O)C1O

>  <_name>  (107) 
(+)-Catechin 3-O-glucose

>  <_molecular_weight>  (107) 
452.409

>  <_formula>  (107) 
C21H24O11

>  <_logP>  (107) 
-0.6297000000000006

>  <_molecular_wt_calculated>  (107) 
452.4119999999998

>  <_havy_atom_count>  (107) 
32

>  <_hydrogen_acceptors>  (107) 
11

>  <_hydrogen_donors>  (107) 
8

>  <_rotatable_bonds>  (107) 
12

>  <_amide_bonds>  (107) 
0

>  <_ring_count>  (107) 
4

$$$$
Naringenin
     RDKit          3D

 32 34  0  0  0  0  0  0  0  0999 V2000
    4.8314    1.3524   -1.9381 O   0  0  0  0  0  0  0  0  0  0  0  0
    3.8260    0.7166   -1.2134 C   0  0  0  0  0  0  0  0  0  0  0  0
    4.0738   -0.4976   -0.5614 C   0  0  0  0  0  0  0  0  0  0  0  0
    3.0568   -1.1262    0.1629 C   0  0  0  0  0  0  0  0  0  0  0  0
    1.7799   -0.5438    0.2559 C   0  0  0  0  0  0  0  0  0  0  0  0
    1.5368    0.6697   -0.4160 C   0  0  0  0  0  0  0  0  0  0  0  0
    2.5562    1.2956   -1.1396 C   0  0  0  0  0  0  0  0  0  0  0  0
    0.6843   -1.2680    1.0158 C   0  0  2  0  0  0  0  0  0  0  0  0
   -0.1209   -2.1975    0.0908 C   0  0  0  0  0  0  0  0  0  0  0  0
   -1.1119   -1.4069   -0.7069 C   0  0  0  0  0  0  0  0  0  0  0  0
   -1.2060   -1.5988   -1.9481 O   0  0  0  0  0  0  0  0  0  0  0  0
   -1.9094   -0.3694   -0.0165 C   0  0  0  0  0  0  0  0  0  0  0  0
   -3.1433    0.1358   -0.5014 C   0  0  0  0  0  0  0  0  0  0  0  0
   -3.7858   -0.3801   -1.6290 O   0  0  0  0  0  0  0  0  0  0  0  0
   -3.7798    1.1758    0.1868 C   0  0  0  0  0  0  0  0  0  0  0  0
   -3.2394    1.6849    1.3729 C   0  0  0  0  0  0  0  0  0  0  0  0
   -3.8821    2.7098    2.0637 O   0  0  0  0  0  0  0  0  0  0  0  0
   -2.0487    1.1584    1.8742 C   0  0  0  0  0  0  0  0  0  0  0  0
   -1.3793    0.1438    1.1856 C   0  0  0  0  0  0  0  0  0  0  0  0
   -0.1694   -0.3439    1.7048 O   0  0  0  0  0  0  0  0  0  0  0  0
    5.7618    0.9575   -2.0113 H   0  0  0  0  0  0  0  0  0  0  0  0
    5.0523   -0.9572   -0.6185 H   0  0  0  0  0  0  0  0  0  0  0  0
    3.2655   -2.0707    0.6503 H   0  0  0  0  0  0  0  0  0  0  0  0
    0.5636    1.1379   -0.3878 H   0  0  0  0  0  0  0  0  0  0  0  0
    2.3576    2.2308   -1.6474 H   0  0  0  0  0  0  0  0  0  0  0  0
    1.1639   -1.9029    1.7928 H   0  0  0  0  0  0  0  0  0  0  0  0
   -0.6803   -2.9315    0.7098 H   0  0  0  0  0  0  0  0  0  0  0  0
    0.5608   -2.7672   -0.5790 H   0  0  0  0  0  0  0  0  0  0  0  0
   -3.5178   -1.2406   -2.0843 H   0  0  0  0  0  0  0  0  0  0  0  0
   -4.7151    1.5710   -0.1899 H   0  0  0  0  0  0  0  0  0  0  0  0
   -4.7491    3.1129    1.7277 H   0  0  0  0  0  0  0  0  0  0  0  0
   -1.6325    1.5492    2.7943 H   0  0  0  0  0  0  0  0  0  0  0  0
  1  2  1  0
  2  3  2  0
  3  4  1  0
  4  5  2  0
  5  6  1  0
  6  7  2  0
  5  8  1  0
  8  9  1  0
  9 10  1  0
 10 11  2  0
 10 12  1  0
 12 13  2  0
 13 14  1  0
 13 15  1  0
 15 16  2  0
 16 17  1  0
 16 18  1  0
 18 19  2  0
 19 20  1  0
  7  2  1  0
 20  8  1  0
 19 12  1  0
  1 21  1  0
  3 22  1  0
  4 23  1  0
  6 24  1  0
  7 25  1  0
  8 26  1  1
  9 27  1  0
  9 28  1  0
 14 29  1  0
 15 30  1  0
 17 31  1  0
 18 32  1  0
M  END
>  <LIG_ID>  (108) 
107

>  <_smiles>  (108) 
OC1=CC=C(C=C1)[C@@H]1CC(=O)C2=C(O)C=C(O)C=C2O1

>  <_name>  (108) 
Naringenin

>  <_molecular_weight>  (108) 
272.253

>  <_formula>  (108) 
C15H12O5

>  <_logP>  (108) 
2.509900000000001

>  <_molecular_wt_calculated>  (108) 
272.25599999999974

>  <_havy_atom_count>  (108) 
20

>  <_hydrogen_acceptors>  (108) 
5

>  <_hydrogen_donors>  (108) 
3

>  <_rotatable_bonds>  (108) 
4

>  <_amide_bonds>  (108) 
0

>  <_ring_count>  (108) 
3

$$$$
Eriodictyol
     RDKit          3D

 33 35  0  0  0  0  0  0  0  0999 V2000
    5.0485   -2.4905    0.3412 O   0  0  0  0  0  0  0  0  0  0  0  0
    4.1909   -1.4061    0.1693 C   0  0  0  0  0  0  0  0  0  0  0  0
    4.7172   -0.1587   -0.1719 C   0  0  0  0  0  0  0  0  0  0  0  0
    3.8788    0.9454   -0.3693 C   0  0  0  0  0  0  0  0  0  0  0  0
    4.4728    2.1338   -0.7999 O   0  0  0  0  0  0  0  0  0  0  0  0
    2.4808    0.8071   -0.1625 C   0  0  0  0  0  0  0  0  0  0  0  0
    1.5083    1.9223   -0.2740 C   0  0  0  0  0  0  0  0  0  0  0  0
    1.8633    3.1254   -0.1634 O   0  0  0  0  0  0  0  0  0  0  0  0
    0.0558    1.5980   -0.4588 C   0  0  0  0  0  0  0  0  0  0  0  0
   -0.3291    0.4549    0.4911 C   0  0  2  0  0  0  0  0  0  0  0  0
    0.5806   -0.6408    0.3544 O   0  0  0  0  0  0  0  0  0  0  0  0
    1.9592   -0.4609    0.1748 C   0  0  0  0  0  0  0  0  0  0  0  0
    2.8104   -1.5577    0.3276 C   0  0  0  0  0  0  0  0  0  0  0  0
   -1.7408   -0.0082    0.2246 C   0  0  0  0  0  0  0  0  0  0  0  0
   -2.7971    0.4432    1.0313 C   0  0  0  0  0  0  0  0  0  0  0  0
   -4.1165    0.0470    0.7778 C   0  0  0  0  0  0  0  0  0  0  0  0
   -5.1162    0.5296    1.6250 O   0  0  0  0  0  0  0  0  0  0  0  0
   -4.3883   -0.8131   -0.3127 C   0  0  0  0  0  0  0  0  0  0  0  0
   -5.6764   -1.2531   -0.6245 O   0  0  0  0  0  0  0  0  0  0  0  0
   -3.3343   -1.2483   -1.1238 C   0  0  0  0  0  0  0  0  0  0  0  0
   -2.0229   -0.8473   -0.8640 C   0  0  0  0  0  0  0  0  0  0  0  0
    4.6983   -3.4092    0.5864 H   0  0  0  0  0  0  0  0  0  0  0  0
    5.7855   -0.0524   -0.3149 H   0  0  0  0  0  0  0  0  0  0  0  0
    3.9583    2.9236   -1.1610 H   0  0  0  0  0  0  0  0  0  0  0  0
   -0.1068    1.2939   -1.5156 H   0  0  0  0  0  0  0  0  0  0  0  0
   -0.5708    2.4918   -0.2450 H   0  0  0  0  0  0  0  0  0  0  0  0
   -0.2499    0.8296    1.5367 H   0  0  0  0  0  0  0  0  0  0  0  0
    2.3972   -2.5250    0.5846 H   0  0  0  0  0  0  0  0  0  0  0  0
   -2.5976    1.1087    1.8626 H   0  0  0  0  0  0  0  0  0  0  0  0
   -6.0963    0.3083    1.5250 H   0  0  0  0  0  0  0  0  0  0  0  0
   -6.5016   -1.0005   -0.1003 H   0  0  0  0  0  0  0  0  0  0  0  0
   -3.5346   -1.9008   -1.9644 H   0  0  0  0  0  0  0  0  0  0  0  0
   -1.2270   -1.1901   -1.5137 H   0  0  0  0  0  0  0  0  0  0  0  0
  1  2  1  0
  2  3  2  0
  3  4  1  0
  4  5  1  0
  4  6  2  0
  6  7  1  0
  7  8  2  0
  7  9  1  0
  9 10  1  0
 10 11  1  0
 11 12  1  0
 12 13  2  0
 10 14  1  0
 14 15  2  0
 15 16  1  0
 16 17  1  0
 16 18  2  0
 18 19  1  0
 18 20  1  0
 20 21  2  0
 13  2  1  0
 21 14  1  0
 12  6  1  0
  1 22  1  0
  3 23  1  0
  5 24  1  0
  9 25  1  0
  9 26  1  0
 10 27  1  1
 13 28  1  0
 15 29  1  0
 17 30  1  0
 19 31  1  0
 20 32  1  0
 21 33  1  0
M  END
>  <LIG_ID>  (109) 
108

>  <_smiles>  (109) 
OC1=CC(O)=C2C(=O)C[C@H](OC2=C1)C1=CC(O)=C(O)C=C1

>  <_name>  (109) 
Eriodictyol

>  <_molecular_weight>  (109) 
288.252

>  <_formula>  (109) 
C15H12O6

>  <_logP>  (109) 
2.2155000000000014

>  <_molecular_wt_calculated>  (109) 
288.25499999999977

>  <_havy_atom_count>  (109) 
21

>  <_hydrogen_acceptors>  (109) 
6

>  <_hydrogen_donors>  (109) 
4

>  <_rotatable_bonds>  (109) 
5

>  <_amide_bonds>  (109) 
0

>  <_ring_count>  (109) 
3

$$$$
Hesperetin
     RDKit          3D

 36 38  0  0  0  0  0  0  0  0999 V2000
   -6.2684   -0.6729   -1.1812 C   0  0  0  0  0  0  0  0  0  0  0  0
   -5.2692    0.3235   -0.9909 O   0  0  0  0  0  0  0  0  0  0  0  0
   -3.9127    0.0543   -0.7488 C   0  0  0  0  0  0  0  0  0  0  0  0
   -3.0254    1.1326   -0.5771 C   0  0  0  0  0  0  0  0  0  0  0  0
   -3.4749    2.4515   -0.6399 O   0  0  0  0  0  0  0  0  0  0  0  0
   -1.6679    0.8936   -0.3367 C   0  0  0  0  0  0  0  0  0  0  0  0
   -1.1716   -0.4187   -0.2733 C   0  0  0  0  0  0  0  0  0  0  0  0
   -2.0599   -1.4930   -0.4292 C   0  0  0  0  0  0  0  0  0  0  0  0
   -3.4162   -1.2611   -0.6701 C   0  0  0  0  0  0  0  0  0  0  0  0
    0.2868   -0.6759    0.0191 C   0  0  2  0  0  0  0  0  0  0  0  0
    0.5781   -0.5193    1.5163 C   0  0  0  0  0  0  0  0  0  0  0  0
    2.0579   -0.5869    1.7766 C   0  0  0  0  0  0  0  0  0  0  0  0
    2.4410   -0.9579    2.9160 O   0  0  0  0  0  0  0  0  0  0  0  0
    3.0198   -0.0976    0.7449 C   0  0  0  0  0  0  0  0  0  0  0  0
    4.4272   -0.0001    0.9378 C   0  0  0  0  0  0  0  0  0  0  0  0
    5.0947   -0.5260    2.0467 O   0  0  0  0  0  0  0  0  0  0  0  0
    5.2137    0.6388   -0.0293 C   0  0  0  0  0  0  0  0  0  0  0  0
    4.6433    1.1402   -1.2030 C   0  0  0  0  0  0  0  0  0  0  0  0
    5.4308    1.7737   -2.1619 O   0  0  0  0  0  0  0  0  0  0  0  0
    3.2750    0.9960   -1.4230 C   0  0  0  0  0  0  0  0  0  0  0  0
    2.4693    0.3693   -0.4702 C   0  0  0  0  0  0  0  0  0  0  0  0
    1.1041    0.2179   -0.7354 O   0  0  0  0  0  0  0  0  0  0  0  0
   -7.2457   -0.1776   -1.3541 H   0  0  0  0  0  0  0  0  0  0  0  0
   -6.0234   -1.2950   -2.0679 H   0  0  0  0  0  0  0  0  0  0  0  0
   -6.3487   -1.3110   -0.2759 H   0  0  0  0  0  0  0  0  0  0  0  0
   -4.4460    2.6837   -0.8101 H   0  0  0  0  0  0  0  0  0  0  0  0
   -1.0000    1.7349   -0.1965 H   0  0  0  0  0  0  0  0  0  0  0  0
   -1.7032   -2.5135   -0.3636 H   0  0  0  0  0  0  0  0  0  0  0  0
   -4.0712   -2.1131   -0.7906 H   0  0  0  0  0  0  0  0  0  0  0  0
    0.5516   -1.7147   -0.2825 H   0  0  0  0  0  0  0  0  0  0  0  0
    0.0578   -1.3238    2.0812 H   0  0  0  0  0  0  0  0  0  0  0  0
    0.2059    0.4637    1.8781 H   0  0  0  0  0  0  0  0  0  0  0  0
    4.7020   -1.2033    2.6822 H   0  0  0  0  0  0  0  0  0  0  0  0
    6.2815    0.7298    0.1277 H   0  0  0  0  0  0  0  0  0  0  0  0
    6.4291    1.8917   -2.0340 H   0  0  0  0  0  0  0  0  0  0  0  0
    2.8349    1.3663   -2.3405 H   0  0  0  0  0  0  0  0  0  0  0  0
  1  2  1  0
  2  3  1  0
  3  4  2  0
  4  5  1  0
  4  6  1  0
  6  7  2  0
  7  8  1  0
  8  9  2  0
  7 10  1  0
 10 11  1  0
 11 12  1  0
 12 13  2  0
 12 14  1  0
 14 15  2  0
 15 16  1  0
 15 17  1  0
 17 18  2  0
 18 19  1  0
 18 20  1  0
 20 21  2  0
 21 22  1  0
  9  3  1  0
 22 10  1  0
 21 14  1  0
  1 23  1  0
  1 24  1  0
  1 25  1  0
  5 26  1  0
  6 27  1  0
  8 28  1  0
  9 29  1  0
 10 30  1  6
 11 31  1  0
 11 32  1  0
 16 33  1  0
 17 34  1  0
 19 35  1  0
 20 36  1  0
M  END
>  <LIG_ID>  (110) 
109

>  <_smiles>  (110) 
COC1=C(O)C=C(C=C1)[C@@H]1CC(=O)C2=C(O)C=C(O)C=C2O1

>  <_name>  (110) 
Hesperetin

>  <_molecular_weight>  (110) 
302.279

>  <_formula>  (110) 
C16H14O6

>  <_logP>  (110) 
2.5185000000000004

>  <_molecular_wt_calculated>  (110) 
302.28199999999975

>  <_havy_atom_count>  (110) 
22

>  <_hydrogen_acceptors>  (110) 
6

>  <_hydrogen_donors>  (110) 
3

>  <_rotatable_bonds>  (110) 
6

>  <_amide_bonds>  (110) 
0

>  <_ring_count>  (110) 
3

$$$$
Eriocitrin
     RDKit          3D

 74 78  0  0  0  0  0  0  0  0999 V2000
    6.3741    0.2450    3.3862 C   0  0  0  0  0  0  0  0  0  0  0  0
    6.8957    1.2567    2.3604 C   0  0  2  0  0  0  0  0  0  0  0  0
    5.8154    1.8245    1.6238 O   0  0  0  0  0  0  0  0  0  0  0  0
    5.5156    1.0821    0.4527 C   0  0  1  0  0  0  0  0  0  0  0  0
    4.3173    1.5764   -0.1157 O   0  0  0  0  0  0  0  0  0  0  0  0
    3.1818    1.0960    0.5832 C   0  0  0  0  0  0  0  0  0  0  0  0
    2.5988   -0.1592   -0.0937 C   0  0  1  0  0  0  0  0  0  0  0  0
    1.6523   -0.7321    0.8074 O   0  0  0  0  0  0  0  0  0  0  0  0
    0.5914   -1.4614    0.2020 C   0  0  1  0  0  0  0  0  0  0  0  0
   -0.5151   -0.5773   -0.0026 O   0  0  0  0  0  0  0  0  0  0  0  0
   -1.8393   -0.9581   -0.2758 C   0  0  0  0  0  0  0  0  0  0  0  0
   -2.2842   -2.2911   -0.1974 C   0  0  0  0  0  0  0  0  0  0  0  0
   -3.6167   -2.6173   -0.4904 C   0  0  0  0  0  0  0  0  0  0  0  0
   -4.0314   -3.9476   -0.4246 O   0  0  0  0  0  0  0  0  0  0  0  0
   -4.5222   -1.6007   -0.8568 C   0  0  0  0  0  0  0  0  0  0  0  0
   -5.9330   -1.8747   -1.2072 C   0  0  0  0  0  0  0  0  0  0  0  0
   -6.4545   -3.0009   -0.9882 O   0  0  0  0  0  0  0  0  0  0  0  0
   -6.7371   -0.8101   -1.8928 C   0  0  0  0  0  0  0  0  0  0  0  0
   -6.3884    0.5886   -1.3509 C   0  0  2  0  0  0  0  0  0  0  0  0
   -4.9710    0.7683   -1.2287 O   0  0  0  0  0  0  0  0  0  0  0  0
   -4.0804   -0.2670   -0.9094 C   0  0  0  0  0  0  0  0  0  0  0  0
   -2.7477    0.0432   -0.6296 C   0  0  0  0  0  0  0  0  0  0  0  0
   -7.1008    0.8700   -0.0400 C   0  0  0  0  0  0  0  0  0  0  0  0
   -8.3706    1.4741   -0.0630 C   0  0  0  0  0  0  0  0  0  0  0  0
   -9.0721    1.7150    1.1271 C   0  0  0  0  0  0  0  0  0  0  0  0
  -10.3265    2.3219    1.0903 O   0  0  0  0  0  0  0  0  0  0  0  0
   -8.5079    1.3403    2.3572 C   0  0  0  0  0  0  0  0  0  0  0  0
   -9.1791    1.5674    3.5582 O   0  0  0  0  0  0  0  0  0  0  0  0
   -7.2533    0.7255    2.3853 C   0  0  0  0  0  0  0  0  0  0  0  0
   -6.5557    0.4852    1.1990 C   0  0  0  0  0  0  0  0  0  0  0  0
    1.0003   -2.1518   -1.1215 C   0  0  2  0  0  0  0  0  0  0  0  0
    2.0538   -3.0505   -0.8802 O   0  0  0  0  0  0  0  0  0  0  0  0
    1.4427   -1.1030   -2.1629 C   0  0  1  0  0  0  0  0  0  0  0  0
    0.3446   -0.7611   -2.9710 O   0  0  0  0  0  0  0  0  0  0  0  0
    2.0106    0.1723   -1.4925 C   0  0  2  0  0  0  0  0  0  0  0  0
    3.0047    0.7274   -2.3158 O   0  0  0  0  0  0  0  0  0  0  0  0
    6.6534    1.2352   -0.5868 C   0  0  2  0  0  0  0  0  0  0  0  0
    6.6488    0.1271   -1.4519 O   0  0  0  0  0  0  0  0  0  0  0  0
    8.0345    1.3672    0.1041 C   0  0  2  0  0  0  0  0  0  0  0  0
    9.0563    0.8361   -0.7006 O   0  0  0  0  0  0  0  0  0  0  0  0
    8.0189    0.6516    1.4648 C   0  0  1  0  0  0  0  0  0  0  0  0
    9.2716    0.7313    2.1005 O   0  0  0  0  0  0  0  0  0  0  0  0
    5.6020    0.7229    4.0257 H   0  0  0  0  0  0  0  0  0  0  0  0
    7.2059   -0.1006    4.0361 H   0  0  0  0  0  0  0  0  0  0  0  0
    5.9233   -0.6367    2.8851 H   0  0  0  0  0  0  0  0  0  0  0  0
    7.3404    2.0934    2.9421 H   0  0  0  0  0  0  0  0  0  0  0  0
    5.4130   -0.0050    0.6927 H   0  0  0  0  0  0  0  0  0  0  0  0
    3.3936    0.8843    1.6590 H   0  0  0  0  0  0  0  0  0  0  0  0
    2.4107    1.8958    0.5833 H   0  0  0  0  0  0  0  0  0  0  0  0
    3.4275   -0.8888   -0.2261 H   0  0  0  0  0  0  0  0  0  0  0  0
    0.2946   -2.2428    0.9327 H   0  0  0  0  0  0  0  0  0  0  0  0
   -1.6095   -3.0854    0.0869 H   0  0  0  0  0  0  0  0  0  0  0  0
   -3.3943   -4.6922   -0.1665 H   0  0  0  0  0  0  0  0  0  0  0  0
   -7.8254   -1.0098   -1.7777 H   0  0  0  0  0  0  0  0  0  0  0  0
   -6.5000   -0.8467   -2.9778 H   0  0  0  0  0  0  0  0  0  0  0  0
   -6.7403    1.3322   -2.0993 H   0  0  0  0  0  0  0  0  0  0  0  0
   -2.4169    1.0732   -0.6798 H   0  0  0  0  0  0  0  0  0  0  0  0
   -8.8186    1.7564   -1.0080 H   0  0  0  0  0  0  0  0  0  0  0  0
  -10.7560    2.6010    0.2159 H   0  0  0  0  0  0  0  0  0  0  0  0
  -10.0903    2.0086    3.5903 H   0  0  0  0  0  0  0  0  0  0  0  0
   -6.8183    0.4288    3.3313 H   0  0  0  0  0  0  0  0  0  0  0  0
   -5.5938   -0.0013    1.2604 H   0  0  0  0  0  0  0  0  0  0  0  0
    0.1369   -2.7215   -1.5356 H   0  0  0  0  0  0  0  0  0  0  0  0
    1.6620   -3.8354   -0.4149 H   0  0  0  0  0  0  0  0  0  0  0  0
    2.2309   -1.5694   -2.8018 H   0  0  0  0  0  0  0  0  0  0  0  0
    0.7101   -0.3400   -3.7923 H   0  0  0  0  0  0  0  0  0  0  0  0
    1.1899    0.9150   -1.3466 H   0  0  0  0  0  0  0  0  0  0  0  0
    2.5375    1.2116   -3.0456 H   0  0  0  0  0  0  0  0  0  0  0  0
    6.4918    2.1660   -1.1808 H   0  0  0  0  0  0  0  0  0  0  0  0
    5.8671    0.2368   -2.0542 H   0  0  0  0  0  0  0  0  0  0  0  0
    8.2380    2.4493    0.2892 H   0  0  0  0  0  0  0  0  0  0  0  0
    9.1808    1.4691   -1.4554 H   0  0  0  0  0  0  0  0  0  0  0  0
    7.8062   -0.4252    1.2780 H   0  0  0  0  0  0  0  0  0  0  0  0
    9.5055    1.6921    2.1915 H   0  0  0  0  0  0  0  0  0  0  0  0
  1  2  1  0
  2  3  1  0
  3  4  1  0
  4  5  1  0
  5  6  1  0
  6  7  1  0
  7  8  1  0
  8  9  1  0
  9 10  1  0
 10 11  1  0
 11 12  2  0
 12 13  1  0
 13 14  1  0
 13 15  2  0
 15 16  1  0
 16 17  2  0
 16 18  1  0
 18 19  1  0
 19 20  1  0
 20 21  1  0
 21 22  2  0
 19 23  1  0
 23 24  2  0
 24 25  1  0
 25 26  1  0
 25 27  2  0
 27 28  1  0
 27 29  1  0
 29 30  2  0
  9 31  1  0
 31 32  1  0
 31 33  1  0
 33 34  1  0
 33 35  1  0
 35 36  1  0
  4 37  1  0
 37 38  1  0
 37 39  1  0
 39 40  1  0
 39 41  1  0
 41 42  1  0
 41  2  1  0
 35  7  1  0
 22 11  1  0
 30 23  1  0
 21 15  1  0
  1 43  1  0
  1 44  1  0
  1 45  1  0
  2 46  1  1
  4 47  1  1
  6 48  1  0
  6 49  1  0
  7 50  1  6
  9 51  1  1
 12 52  1  0
 14 53  1  0
 18 54  1  0
 18 55  1  0
 19 56  1  6
 22 57  1  0
 24 58  1  0
 26 59  1  0
 28 60  1  0
 29 61  1  0
 30 62  1  0
 31 63  1  6
 32 64  1  0
 33 65  1  6
 34 66  1  0
 35 67  1  1
 36 68  1  0
 37 69  1  6
 38 70  1  0
 39 71  1  1
 40 72  1  0
 41 73  1  6
 42 74  1  0
M  END
>  <LIG_ID>  (111) 
110

>  <_smiles>  (111) 
C[C@@H]1O[C@@H](OC[C@H]2O[C@@H](OC3=CC(O)=C4C(=O)C[C@H](OC4=C3)C3=CC(O)=C(O)C=C3)[C@H](O)[C@@H](O)[C@@H]2O)[C@H](O)[C@H](O)[C@H]1O

>  <_name>  (111) 
Eriocitrin

>  <_molecular_weight>  (111) 
596.534

>  <_formula>  (111) 
C27H32O15

>  <_logP>  (111) 
-1.4596000000000011

>  <_molecular_wt_calculated>  (111) 
596.5380000000016

>  <_havy_atom_count>  (111) 
42

>  <_hydrogen_acceptors>  (111) 
15

>  <_hydrogen_donors>  (111) 
9

>  <_rotatable_bonds>  (111) 
16

>  <_amide_bonds>  (111) 
0

>  <_ring_count>  (111) 
5

$$$$
Hesperidin
     RDKit          3D

 77 81  0  0  0  0  0  0  0  0999 V2000
    7.7854    4.5902    3.8721 C   0  0  0  0  0  0  0  0  0  0  0  0
    6.5480    4.0424    3.4292 O   0  0  0  0  0  0  0  0  0  0  0  0
    6.3200    2.6757    3.2045 C   0  0  0  0  0  0  0  0  0  0  0  0
    5.0514    2.2719    2.7672 C   0  0  0  0  0  0  0  0  0  0  0  0
    4.0579    3.2284    2.5637 O   0  0  0  0  0  0  0  0  0  0  0  0
    4.7835    0.9158    2.5333 C   0  0  0  0  0  0  0  0  0  0  0  0
    5.7770   -0.0576    2.7431 C   0  0  0  0  0  0  0  0  0  0  0  0
    7.0509    0.3556    3.1657 C   0  0  0  0  0  0  0  0  0  0  0  0
    7.3203    1.7060    3.4004 C   0  0  0  0  0  0  0  0  0  0  0  0
    5.5268   -1.5272    2.4584 C   0  0  2  0  0  0  0  0  0  0  0  0
    5.8063   -1.8695    0.9845 C   0  0  0  0  0  0  0  0  0  0  0  0
    4.6565   -1.4431    0.1244 C   0  0  0  0  0  0  0  0  0  0  0  0
    4.8779   -0.7986   -0.9348 O   0  0  0  0  0  0  0  0  0  0  0  0
    3.2812   -1.7362    0.5847 C   0  0  0  0  0  0  0  0  0  0  0  0
    2.1542   -1.7946   -0.2729 C   0  0  0  0  0  0  0  0  0  0  0  0
    2.2513   -1.6941   -1.6626 O   0  0  0  0  0  0  0  0  0  0  0  0
    0.8808   -1.9955    0.2730 C   0  0  0  0  0  0  0  0  0  0  0  0
    0.7105   -2.1914    1.6553 C   0  0  0  0  0  0  0  0  0  0  0  0
   -0.5480   -2.4051    2.2398 O   0  0  0  0  0  0  0  0  0  0  0  0
   -1.7879   -2.3963    1.5332 C   0  0  2  0  0  0  0  0  0  0  0  0
   -2.0132   -1.1040    1.0024 O   0  0  0  0  0  0  0  0  0  0  0  0
   -3.0645   -1.1404    0.0477 C   0  0  2  0  0  0  0  0  0  0  0  0
   -3.3559    0.3036   -0.3913 C   0  0  0  0  0  0  0  0  0  0  0  0
   -4.3089    0.3265   -1.4399 O   0  0  0  0  0  0  0  0  0  0  0  0
   -3.6797    0.4017   -2.7083 C   0  0  2  0  0  0  0  0  0  0  0  0
   -3.1936    1.7216   -2.9391 O   0  0  0  0  0  0  0  0  0  0  0  0
   -4.2339    2.5943   -3.3422 C   0  0  1  0  0  0  0  0  0  0  0  0
   -3.7268    4.0339   -3.2559 C   0  0  0  0  0  0  0  0  0  0  0  0
   -4.7058    2.2509   -4.7850 C   0  0  2  0  0  0  0  0  0  0  0  0
   -6.0672    2.5709   -4.9245 O   0  0  0  0  0  0  0  0  0  0  0  0
   -4.5045    0.7499   -5.0962 C   0  0  1  0  0  0  0  0  0  0  0  0
   -3.2149    0.5579   -5.6261 O   0  0  0  0  0  0  0  0  0  0  0  0
   -4.6777   -0.0743   -3.8051 C   0  0  1  0  0  0  0  0  0  0  0  0
   -4.5667   -1.4556   -4.0491 O   0  0  0  0  0  0  0  0  0  0  0  0
   -4.3496   -1.8408    0.6015 C   0  0  1  0  0  0  0  0  0  0  0  0
   -4.5071   -3.0837   -0.0367 O   0  0  0  0  0  0  0  0  0  0  0  0
   -4.2490   -2.0486    2.1265 C   0  0  2  0  0  0  0  0  0  0  0  0
   -4.3076   -0.7947    2.7592 O   0  0  0  0  0  0  0  0  0  0  0  0
   -2.9285   -2.7706    2.5047 C   0  0  1  0  0  0  0  0  0  0  0  0
   -3.1129   -4.1632    2.4794 O   0  0  0  0  0  0  0  0  0  0  0  0
    1.8312   -2.1812    2.4875 C   0  0  0  0  0  0  0  0  0  0  0  0
    3.1056   -1.9475    1.9668 C   0  0  0  0  0  0  0  0  0  0  0  0
    4.2006   -1.9138    2.8450 O   0  0  0  0  0  0  0  0  0  0  0  0
    8.5860    4.3705    3.1346 H   0  0  0  0  0  0  0  0  0  0  0  0
    7.6816    5.6905    3.9663 H   0  0  0  0  0  0  0  0  0  0  0  0
    8.0545    4.1722    4.8651 H   0  0  0  0  0  0  0  0  0  0  0  0
    3.1302    2.9713    2.2470 H   0  0  0  0  0  0  0  0  0  0  0  0
    3.8000    0.6333    2.1870 H   0  0  0  0  0  0  0  0  0  0  0  0
    7.8412   -0.3704    3.3124 H   0  0  0  0  0  0  0  0  0  0  0  0
    8.3116    1.9854    3.7301 H   0  0  0  0  0  0  0  0  0  0  0  0
    6.2294   -2.1249    3.0797 H   0  0  0  0  0  0  0  0  0  0  0  0
    5.9265   -2.9695    0.8827 H   0  0  0  0  0  0  0  0  0  0  0  0
    6.7519   -1.3911    0.6456 H   0  0  0  0  0  0  0  0  0  0  0  0
    3.1231   -1.7399   -2.1701 H   0  0  0  0  0  0  0  0  0  0  0  0
    0.0332   -2.0244   -0.3977 H   0  0  0  0  0  0  0  0  0  0  0  0
   -1.7270   -3.1587    0.7189 H   0  0  0  0  0  0  0  0  0  0  0  0
   -2.7034   -1.6847   -0.8550 H   0  0  0  0  0  0  0  0  0  0  0  0
   -2.4026    0.8217   -0.6535 H   0  0  0  0  0  0  0  0  0  0  0  0
   -3.7772    0.8628    0.4712 H   0  0  0  0  0  0  0  0  0  0  0  0
   -2.7961   -0.2763   -2.7508 H   0  0  0  0  0  0  0  0  0  0  0  0
   -5.0945    2.5144   -2.6358 H   0  0  0  0  0  0  0  0  0  0  0  0
   -3.4223    4.2613   -2.2122 H   0  0  0  0  0  0  0  0  0  0  0  0
   -4.5266    4.7456   -3.5509 H   0  0  0  0  0  0  0  0  0  0  0  0
   -2.8476    4.1768   -3.9201 H   0  0  0  0  0  0  0  0  0  0  0  0
   -4.1164    2.8312   -5.5353 H   0  0  0  0  0  0  0  0  0  0  0  0
   -6.1228    3.5561   -5.0322 H   0  0  0  0  0  0  0  0  0  0  0  0
   -5.2726    0.4299   -5.8414 H   0  0  0  0  0  0  0  0  0  0  0  0
   -3.2671   -0.2067   -6.2571 H   0  0  0  0  0  0  0  0  0  0  0  0
   -5.7141    0.1071   -3.4412 H   0  0  0  0  0  0  0  0  0  0  0  0
   -3.6433   -1.6406   -4.3610 H   0  0  0  0  0  0  0  0  0  0  0  0
   -5.2522   -1.2178    0.3946 H   0  0  0  0  0  0  0  0  0  0  0  0
   -5.4434   -3.3748    0.1206 H   0  0  0  0  0  0  0  0  0  0  0  0
   -5.1224   -2.6593    2.4575 H   0  0  0  0  0  0  0  0  0  0  0  0
   -4.5493   -0.9611    3.7079 H   0  0  0  0  0  0  0  0  0  0  0  0
   -2.6347   -2.4604    3.5361 H   0  0  0  0  0  0  0  0  0  0  0  0
   -3.6162   -4.4021    3.3014 H   0  0  0  0  0  0  0  0  0  0  0  0
    1.7092   -2.3370    3.5522 H   0  0  0  0  0  0  0  0  0  0  0  0
  1  2  1  0
  2  3  1  0
  3  4  2  0
  4  5  1  0
  4  6  1  0
  6  7  2  0
  7  8  1  0
  8  9  2  0
  7 10  1  0
 10 11  1  0
 11 12  1  0
 12 13  2  0
 12 14  1  0
 14 15  2  0
 15 16  1  0
 15 17  1  0
 17 18  2  0
 18 19  1  0
 19 20  1  0
 20 21  1  0
 21 22  1  0
 22 23  1  0
 23 24  1  0
 24 25  1  0
 25 26  1  0
 26 27  1  0
 27 28  1  0
 27 29  1  0
 29 30  1  0
 29 31  1  0
 31 32  1  0
 31 33  1  0
 33 34  1  0
 22 35  1  0
 35 36  1  0
 35 37  1  0
 37 38  1  0
 37 39  1  0
 39 40  1  0
 18 41  1  0
 41 42  2  0
 42 43  1  0
  9  3  1  0
 43 10  1  0
 42 14  1  0
 39 20  1  0
 33 25  1  0
  1 44  1  0
  1 45  1  0
  1 46  1  0
  5 47  1  0
  6 48  1  0
  8 49  1  0
  9 50  1  0
 10 51  1  1
 11 52  1  0
 11 53  1  0
 16 54  1  0
 17 55  1  0
 20 56  1  6
 22 57  1  6
 23 58  1  0
 23 59  1  0
 25 60  1  1
 27 61  1  1
 28 62  1  0
 28 63  1  0
 28 64  1  0
 29 65  1  6
 30 66  1  0
 31 67  1  6
 32 68  1  0
 33 69  1  1
 34 70  1  0
 35 71  1  1
 36 72  1  0
 37 73  1  1
 38 74  1  0
 39 75  1  1
 40 76  1  0
 41 77  1  0
M  END
>  <LIG_ID>  (112) 
111

>  <_smiles>  (112) 
COC1=C(O)C=C(C=C1)[C@@H]1CC(=O)C2=C(O)C=C(O[C@@H]3O[C@H](CO[C@@H]4O[C@@H](C)[C@H](O)[C@@H](O)[C@H]4O)[C@@H](O)[C@H](O)[C@H]3O)C=C2O1

>  <_name>  (112) 
Hesperidin

>  <_molecular_weight>  (112) 
610.561

>  <_formula>  (112) 
C28H34O15

>  <_logP>  (112) 
-1.1566000000000003

>  <_molecular_wt_calculated>  (112) 
610.5650000000016

>  <_havy_atom_count>  (112) 
43

>  <_hydrogen_acceptors>  (112) 
15

>  <_hydrogen_donors>  (112) 
8

>  <_rotatable_bonds>  (112) 
17

>  <_amide_bonds>  (112) 
0

>  <_ring_count>  (112) 
5

$$$$
Naringin
     RDKit          3D

 73 77  0  0  0  0  0  0  0  0999 V2000
   -0.5499    2.5348   -0.0078 C   0  0  0  0  0  0  0  0  0  0  0  0
   -1.8831    1.7951   -0.1311 C   0  0  2  0  0  0  0  0  0  0  0  0
   -1.9321    1.1817   -1.4106 O   0  0  0  0  0  0  0  0  0  0  0  0
   -3.1136    0.4134   -1.5941 C   0  0  1  0  0  0  0  0  0  0  0  0
   -3.1933   -0.6470   -0.6467 O   0  0  0  0  0  0  0  0  0  0  0  0
   -2.6517   -1.8647   -1.1416 C   0  0  2  0  0  0  0  0  0  0  0  0
   -3.7729   -2.7428   -1.7288 C   0  0  1  0  0  0  0  0  0  0  0  0
   -4.4830   -2.0826   -2.7476 O   0  0  0  0  0  0  0  0  0  0  0  0
   -3.1804   -4.0731   -2.2441 C   0  0  2  0  0  0  0  0  0  0  0  0
   -4.2067   -5.0142   -2.4447 O   0  0  0  0  0  0  0  0  0  0  0  0
   -2.0918   -4.6285   -1.2797 C   0  0  1  0  0  0  0  0  0  0  0  0
   -0.6676   -4.5656   -1.8749 C   0  0  0  0  0  0  0  0  0  0  0  0
    0.2785   -5.0161   -0.9431 O   0  0  0  0  0  0  0  0  0  0  0  0
   -2.1704   -4.0448    0.0137 O   0  0  0  0  0  0  0  0  0  0  0  0
   -1.9857   -2.6318    0.0382 C   0  0  1  0  0  0  0  0  0  0  0  0
   -0.5850   -2.3418    0.0992 O   0  0  0  0  0  0  0  0  0  0  0  0
    0.0386   -1.3538    0.8780 C   0  0  0  0  0  0  0  0  0  0  0  0
   -0.5188   -0.8376    2.0623 C   0  0  0  0  0  0  0  0  0  0  0  0
    0.1516    0.1415    2.8061 C   0  0  0  0  0  0  0  0  0  0  0  0
   -0.4322    0.5461    4.0088 O   0  0  0  0  0  0  0  0  0  0  0  0
    1.3896    0.6504    2.3396 C   0  0  0  0  0  0  0  0  0  0  0  0
    2.1357    1.7527    2.9949 C   0  0  0  0  0  0  0  0  0  0  0  0
    1.5663    2.5749    3.7602 O   0  0  0  0  0  0  0  0  0  0  0  0
    3.5909    1.9285    2.6781 C   0  0  0  0  0  0  0  0  0  0  0  0
    3.7985    1.7688    1.1655 C   0  0  2  0  0  0  0  0  0  0  0  0
    3.1979    0.5564    0.7015 O   0  0  0  0  0  0  0  0  0  0  0  0
    1.9597    0.1004    1.1735 C   0  0  0  0  0  0  0  0  0  0  0  0
    1.2936   -0.9018    0.4667 C   0  0  0  0  0  0  0  0  0  0  0  0
    5.2681    1.7821    0.8233 C   0  0  0  0  0  0  0  0  0  0  0  0
    6.0618    0.6403    1.0335 C   0  0  0  0  0  0  0  0  0  0  0  0
    7.4290    0.6672    0.7430 C   0  0  0  0  0  0  0  0  0  0  0  0
    8.0212    1.8342    0.2505 C   0  0  0  0  0  0  0  0  0  0  0  0
    9.3846    1.8463   -0.0349 O   0  0  0  0  0  0  0  0  0  0  0  0
    7.2393    2.9798    0.0519 C   0  0  0  0  0  0  0  0  0  0  0  0
    5.8716    2.9561    0.3416 C   0  0  0  0  0  0  0  0  0  0  0  0
   -4.3774    1.2941   -1.4995 C   0  0  2  0  0  0  0  0  0  0  0  0
   -4.3935    2.2175   -2.5596 O   0  0  0  0  0  0  0  0  0  0  0  0
   -4.3979    2.0380   -0.1534 C   0  0  2  0  0  0  0  0  0  0  0  0
   -5.4950    2.9151   -0.0717 O   0  0  0  0  0  0  0  0  0  0  0  0
   -3.0637    2.7770    0.0677 C   0  0  1  0  0  0  0  0  0  0  0  0
   -3.0307    3.3645    1.3457 O   0  0  0  0  0  0  0  0  0  0  0  0
    0.2856    1.8450   -0.2433 H   0  0  0  0  0  0  0  0  0  0  0  0
   -0.5073    3.3851   -0.7213 H   0  0  0  0  0  0  0  0  0  0  0  0
   -0.4102    2.9172    1.0258 H   0  0  0  0  0  0  0  0  0  0  0  0
   -1.9069    1.0204    0.6647 H   0  0  0  0  0  0  0  0  0  0  0  0
   -3.0901    0.0370   -2.6403 H   0  0  0  0  0  0  0  0  0  0  0  0
   -1.8714   -1.6922   -1.9216 H   0  0  0  0  0  0  0  0  0  0  0  0
   -4.4949   -2.9600   -0.9098 H   0  0  0  0  0  0  0  0  0  0  0  0
   -3.8643   -1.9459   -3.5117 H   0  0  0  0  0  0  0  0  0  0  0  0
   -2.7132   -3.8900   -3.2369 H   0  0  0  0  0  0  0  0  0  0  0  0
   -4.6093   -5.2138   -1.5588 H   0  0  0  0  0  0  0  0  0  0  0  0
   -2.2947   -5.7134   -1.1398 H   0  0  0  0  0  0  0  0  0  0  0  0
   -0.4087   -3.5299   -2.1739 H   0  0  0  0  0  0  0  0  0  0  0  0
   -0.6179   -5.1887   -2.7973 H   0  0  0  0  0  0  0  0  0  0  0  0
    0.1894   -6.0040   -0.9022 H   0  0  0  0  0  0  0  0  0  0  0  0
   -2.4909   -2.3040    0.9651 H   0  0  0  0  0  0  0  0  0  0  0  0
   -1.4520   -1.2105    2.4539 H   0  0  0  0  0  0  0  0  0  0  0  0
    0.0478    1.0842    4.7154 H   0  0  0  0  0  0  0  0  0  0  0  0
    4.1688    1.1567    3.2314 H   0  0  0  0  0  0  0  0  0  0  0  0
    3.9388    2.9342    3.0015 H   0  0  0  0  0  0  0  0  0  0  0  0
    3.2877    2.6152    0.6527 H   0  0  0  0  0  0  0  0  0  0  0  0
    1.7417   -1.3101   -0.4307 H   0  0  0  0  0  0  0  0  0  0  0  0
    5.6224   -0.2691    1.4243 H   0  0  0  0  0  0  0  0  0  0  0  0
    8.0298   -0.2189    0.9042 H   0  0  0  0  0  0  0  0  0  0  0  0
    9.8434    2.6763   -0.3919 H   0  0  0  0  0  0  0  0  0  0  0  0
    7.6906    3.8895   -0.3233 H   0  0  0  0  0  0  0  0  0  0  0  0
    5.2846    3.8536    0.1908 H   0  0  0  0  0  0  0  0  0  0  0  0
   -5.2823    0.6439   -1.5540 H   0  0  0  0  0  0  0  0  0  0  0  0
   -4.6973    1.7246   -3.3661 H   0  0  0  0  0  0  0  0  0  0  0  0
   -4.5195    1.2807    0.6531 H   0  0  0  0  0  0  0  0  0  0  0  0
   -5.3487    3.6528   -0.7195 H   0  0  0  0  0  0  0  0  0  0  0  0
   -2.9761    3.5906   -0.6863 H   0  0  0  0  0  0  0  0  0  0  0  0
   -3.0746    2.6328    2.0158 H   0  0  0  0  0  0  0  0  0  0  0  0
  1  2  1  0
  2  3  1  0
  3  4  1  0
  4  5  1  0
  5  6  1  0
  6  7  1  0
  7  8  1  0
  7  9  1  0
  9 10  1  0
  9 11  1  0
 11 12  1  0
 12 13  1  0
 11 14  1  0
 14 15  1  0
 15 16  1  0
 16 17  1  0
 17 18  2  0
 18 19  1  0
 19 20  1  0
 19 21  2  0
 21 22  1  0
 22 23  2  0
 22 24  1  0
 24 25  1  0
 25 26  1  0
 26 27  1  0
 27 28  2  0
 25 29  1  0
 29 30  2  0
 30 31  1  0
 31 32  2  0
 32 33  1  0
 32 34  1  0
 34 35  2  0
  4 36  1  0
 36 37  1  0
 36 38  1  0
 38 39  1  0
 38 40  1  0
 40 41  1  0
 40  2  1  0
 15  6  1  0
 28 17  1  0
 35 29  1  0
 27 21  1  0
  1 42  1  0
  1 43  1  0
  1 44  1  0
  2 45  1  1
  4 46  1  6
  6 47  1  6
  7 48  1  1
  8 49  1  0
  9 50  1  6
 10 51  1  0
 11 52  1  1
 12 53  1  0
 12 54  1  0
 13 55  1  0
 15 56  1  1
 18 57  1  0
 20 58  1  0
 24 59  1  0
 24 60  1  0
 25 61  1  6
 28 62  1  0
 30 63  1  0
 31 64  1  0
 33 65  1  0
 34 66  1  0
 35 67  1  0
 36 68  1  6
 37 69  1  0
 38 70  1  1
 39 71  1  0
 40 72  1  6
 41 73  1  0
M  END
>  <LIG_ID>  (113) 
112

>  <_smiles>  (113) 
C[C@@H]1O[C@@H](O[C@@H]2[C@@H](O)[C@H](O)[C@@H](CO)O[C@H]2OC2=CC(O)=C3C(=O)C[C@H](OC3=C2)C2=CC=C(O)C=C2)[C@H](O)[C@H](O)[C@H]1O

>  <_name>  (113) 
Naringin

>  <_molecular_weight>  (113) 
580.535

>  <_formula>  (113) 
C27H32O14

>  <_logP>  (113) 
-1.1652000000000018

>  <_molecular_wt_calculated>  (113) 
580.5390000000016

>  <_havy_atom_count>  (113) 
41

>  <_hydrogen_acceptors>  (113) 
14

>  <_hydrogen_donors>  (113) 
8

>  <_rotatable_bonds>  (113) 
15

>  <_amide_bonds>  (113) 
0

>  <_ring_count>  (113) 
5

$$$$
Narirutin
     RDKit          3D

 73 77  0  0  0  0  0  0  0  0999 V2000
   -6.3508   -2.1957   -0.7547 C   0  0  0  0  0  0  0  0  0  0  0  0
   -5.9476   -1.0721   -1.7257 C   0  0  2  0  0  0  0  0  0  0  0  0
   -4.5823   -0.7010   -1.5888 O   0  0  0  0  0  0  0  0  0  0  0  0
   -4.3304    0.0276   -0.3954 C   0  0  1  0  0  0  0  0  0  0  0  0
   -2.9462    0.3058   -0.3106 O   0  0  0  0  0  0  0  0  0  0  0  0
   -2.1985   -0.8685   -0.0373 C   0  0  0  0  0  0  0  0  0  0  0  0
   -1.4263   -0.7124    1.2800 C   0  0  1  0  0  0  0  0  0  0  0  0
   -0.6088    0.4431    1.1893 O   0  0  0  0  0  0  0  0  0  0  0  0
    0.2643    0.5248    2.3031 C   0  0  1  0  0  0  0  0  0  0  0  0
    1.1487    1.6294    2.1200 O   0  0  0  0  0  0  0  0  0  0  0  0
    2.1076    1.7283    1.0996 C   0  0  0  0  0  0  0  0  0  0  0  0
    2.8824    2.8903    1.0305 C   0  0  0  0  0  0  0  0  0  0  0  0
    3.8503    3.0517    0.0291 C   0  0  0  0  0  0  0  0  0  0  0  0
    4.5973    4.2284   -0.0249 O   0  0  0  0  0  0  0  0  0  0  0  0
    4.0521    2.0278   -0.9189 C   0  0  0  0  0  0  0  0  0  0  0  0
    5.0344    2.1396   -2.0192 C   0  0  0  0  0  0  0  0  0  0  0  0
    5.8923    3.0627   -2.0386 O   0  0  0  0  0  0  0  0  0  0  0  0
    4.9659    1.1720   -3.1633 C   0  0  0  0  0  0  0  0  0  0  0  0
    4.5843   -0.2391   -2.6790 C   0  0  2  0  0  0  0  0  0  0  0  0
    3.4973   -0.1999   -1.7447 O   0  0  0  0  0  0  0  0  0  0  0  0
    3.2872    0.8502   -0.8391 C   0  0  0  0  0  0  0  0  0  0  0  0
    2.3162    0.7068    0.1554 C   0  0  0  0  0  0  0  0  0  0  0  0
    5.7833   -0.9740   -2.1072 C   0  0  0  0  0  0  0  0  0  0  0  0
    6.1641   -0.8393   -0.7579 C   0  0  0  0  0  0  0  0  0  0  0  0
    7.2955   -1.5008   -0.2712 C   0  0  0  0  0  0  0  0  0  0  0  0
    8.0693   -2.2960   -1.1254 C   0  0  0  0  0  0  0  0  0  0  0  0
    9.1983   -2.9594   -0.6504 O   0  0  0  0  0  0  0  0  0  0  0  0
    7.7078   -2.4232   -2.4690 C   0  0  0  0  0  0  0  0  0  0  0  0
    6.5773   -1.7632   -2.9592 C   0  0  0  0  0  0  0  0  0  0  0  0
   -0.5479    0.7485    3.5932 C   0  0  2  0  0  0  0  0  0  0  0  0
    0.2984    0.8560    4.7111 O   0  0  0  0  0  0  0  0  0  0  0  0
   -1.5639   -0.3979    3.7793 C   0  0  1  0  0  0  0  0  0  0  0  0
   -2.4036   -0.1488    4.8795 O   0  0  0  0  0  0  0  0  0  0  0  0
   -2.3851   -0.6017    2.4897 C   0  0  2  0  0  0  0  0  0  0  0  0
   -3.1511   -1.7746    2.5962 O   0  0  0  0  0  0  0  0  0  0  0  0
   -5.0859    1.3642   -0.4114 C   0  0  2  0  0  0  0  0  0  0  0  0
   -4.8024    2.0761    0.7661 O   0  0  0  0  0  0  0  0  0  0  0  0
   -6.5996    1.1176   -0.5312 C   0  0  2  0  0  0  0  0  0  0  0  0
   -7.0919    0.5994    0.6792 O   0  0  0  0  0  0  0  0  0  0  0  0
   -6.9075    0.1497   -1.6958 C   0  0  1  0  0  0  0  0  0  0  0  0
   -6.8716    0.8376   -2.9233 O   0  0  0  0  0  0  0  0  0  0  0  0
   -7.3214   -2.6343   -1.0702 H   0  0  0  0  0  0  0  0  0  0  0  0
   -6.4645   -1.8332    0.2856 H   0  0  0  0  0  0  0  0  0  0  0  0
   -5.5838   -2.9986   -0.7713 H   0  0  0  0  0  0  0  0  0  0  0  0
   -6.0455   -1.5219   -2.7383 H   0  0  0  0  0  0  0  0  0  0  0  0
   -4.6490   -0.5416    0.5084 H   0  0  0  0  0  0  0  0  0  0  0  0
   -2.7985   -1.8102   -0.0106 H   0  0  0  0  0  0  0  0  0  0  0  0
   -1.4609   -1.0006   -0.8576 H   0  0  0  0  0  0  0  0  0  0  0  0
   -0.7958   -1.6265    1.3916 H   0  0  0  0  0  0  0  0  0  0  0  0
    0.8760   -0.4029    2.4031 H   0  0  0  0  0  0  0  0  0  0  0  0
    2.7247    3.6770    1.7579 H   0  0  0  0  0  0  0  0  0  0  0  0
    4.4629    4.9754    0.6466 H   0  0  0  0  0  0  0  0  0  0  0  0
    4.1897    1.5332   -3.8716 H   0  0  0  0  0  0  0  0  0  0  0  0
    5.9352    1.1452   -3.7087 H   0  0  0  0  0  0  0  0  0  0  0  0
    4.2233   -0.8078   -3.5640 H   0  0  0  0  0  0  0  0  0  0  0  0
    1.7427   -0.2092    0.1889 H   0  0  0  0  0  0  0  0  0  0  0  0
    5.5959   -0.2261   -0.0746 H   0  0  0  0  0  0  0  0  0  0  0  0
    7.5720   -1.3914    0.7697 H   0  0  0  0  0  0  0  0  0  0  0  0
    9.4870   -2.8863    0.3182 H   0  0  0  0  0  0  0  0  0  0  0  0
    8.3061   -3.0311   -3.1358 H   0  0  0  0  0  0  0  0  0  0  0  0
    6.3222   -1.8665   -4.0067 H   0  0  0  0  0  0  0  0  0  0  0  0
   -1.1026    1.7074    3.4885 H   0  0  0  0  0  0  0  0  0  0  0  0
    0.8088    0.0075    4.7862 H   0  0  0  0  0  0  0  0  0  0  0  0
   -1.0045   -1.3380    3.9852 H   0  0  0  0  0  0  0  0  0  0  0  0
   -2.9089    0.6850    4.6911 H   0  0  0  0  0  0  0  0  0  0  0  0
   -3.0499    0.2813    2.3366 H   0  0  0  0  0  0  0  0  0  0  0  0
   -3.9596   -1.5428    3.1237 H   0  0  0  0  0  0  0  0  0  0  0  0
   -4.7344    1.9531   -1.2907 H   0  0  0  0  0  0  0  0  0  0  0  0
   -5.0943    3.0124    0.6114 H   0  0  0  0  0  0  0  0  0  0  0  0
   -7.0931    2.0976   -0.7338 H   0  0  0  0  0  0  0  0  0  0  0  0
   -8.0760    0.7310    0.6702 H   0  0  0  0  0  0  0  0  0  0  0  0
   -7.9486   -0.2226   -1.5754 H   0  0  0  0  0  0  0  0  0  0  0  0
   -5.9281    1.0796   -3.1127 H   0  0  0  0  0  0  0  0  0  0  0  0
  1  2  1  0
  2  3  1  0
  3  4  1  0
  4  5  1  0
  5  6  1  0
  6  7  1  0
  7  8  1  0
  8  9  1  0
  9 10  1  0
 10 11  1  0
 11 12  2  0
 12 13  1  0
 13 14  1  0
 13 15  2  0
 15 16  1  0
 16 17  2  0
 16 18  1  0
 18 19  1  0
 19 20  1  0
 20 21  1  0
 21 22  2  0
 19 23  1  0
 23 24  2  0
 24 25  1  0
 25 26  2  0
 26 27  1  0
 26 28  1  0
 28 29  2  0
  9 30  1  0
 30 31  1  0
 30 32  1  0
 32 33  1  0
 32 34  1  0
 34 35  1  0
  4 36  1  0
 36 37  1  0
 36 38  1  0
 38 39  1  0
 38 40  1  0
 40 41  1  0
 40  2  1  0
 34  7  1  0
 22 11  1  0
 29 23  1  0
 21 15  1  0
  1 42  1  0
  1 43  1  0
  1 44  1  0
  2 45  1  6
  4 46  1  1
  6 47  1  0
  6 48  1  0
  7 49  1  1
  9 50  1  1
 12 51  1  0
 14 52  1  0
 18 53  1  0
 18 54  1  0
 19 55  1  6
 22 56  1  0
 24 57  1  0
 25 58  1  0
 27 59  1  0
 28 60  1  0
 29 61  1  0
 30 62  1  6
 31 63  1  0
 32 64  1  1
 33 65  1  0
 34 66  1  6
 35 67  1  0
 36 68  1  6
 37 69  1  0
 38 70  1  6
 39 71  1  0
 40 72  1  1
 41 73  1  0
M  END
>  <LIG_ID>  (114) 
113

>  <_smiles>  (114) 
C[C@@H]1O[C@@H](OC[C@H]2O[C@@H](OC3=CC(O)=C4C(=O)C[C@H](OC4=C3)C3=CC=C(O)C=C3)[C@H](O)[C@@H](O)[C@@H]2O)[C@H](O)[C@H](O)[C@H]1O

>  <_name>  (114) 
Narirutin

>  <_molecular_weight>  (114) 
580.535

>  <_formula>  (114) 
C27H32O14

>  <_logP>  (114) 
-1.1652000000000007

>  <_molecular_wt_calculated>  (114) 
580.5390000000016

>  <_havy_atom_count>  (114) 
41

>  <_hydrogen_acceptors>  (114) 
14

>  <_hydrogen_donors>  (114) 
8

>  <_rotatable_bonds>  (114) 
15

>  <_amide_bonds>  (114) 
0

>  <_ring_count>  (114) 
5

$$$$
Neoeriocitrin
     RDKit          3D

 74 78  0  0  0  0  0  0  0  0999 V2000
   -2.6163   -2.9341    1.8161 C   0  0  0  0  0  0  0  0  0  0  0  0
   -2.3093   -3.0056    0.3163 C   0  0  2  0  0  0  0  0  0  0  0  0
   -2.2839   -1.6972   -0.2461 O   0  0  0  0  0  0  0  0  0  0  0  0
   -3.5589   -1.2968   -0.7207 C   0  0  1  0  0  0  0  0  0  0  0  0
   -3.5269    0.0772   -1.0561 O   0  0  0  0  0  0  0  0  0  0  0  0
   -3.4386    0.8944    0.1025 C   0  0  2  0  0  0  0  0  0  0  0  0
   -4.6981    1.7739    0.1959 C   0  0  1  0  0  0  0  0  0  0  0  0
   -5.8182    0.9813    0.4950 O   0  0  0  0  0  0  0  0  0  0  0  0
   -4.5232    2.8389    1.2952 C   0  0  2  0  0  0  0  0  0  0  0  0
   -5.6120    3.7294    1.2896 O   0  0  0  0  0  0  0  0  0  0  0  0
   -3.1740    3.5838    1.1108 C   0  0  1  0  0  0  0  0  0  0  0  0
   -2.9225    4.5838    2.2512 C   0  0  0  0  0  0  0  0  0  0  0  0
   -3.8400    5.6437    2.2115 O   0  0  0  0  0  0  0  0  0  0  0  0
   -2.1057    2.6525    1.1063 O   0  0  0  0  0  0  0  0  0  0  0  0
   -2.1971    1.7936   -0.0173 C   0  0  1  0  0  0  0  0  0  0  0  0
   -1.0384    0.9629   -0.0599 O   0  0  0  0  0  0  0  0  0  0  0  0
    0.2704    1.4153   -0.2840 C   0  0  0  0  0  0  0  0  0  0  0  0
    0.5765    2.7686   -0.5108 C   0  0  0  0  0  0  0  0  0  0  0  0
    1.8988    3.1828   -0.7127 C   0  0  0  0  0  0  0  0  0  0  0  0
    2.1294    4.5549   -0.8356 O   0  0  0  0  0  0  0  0  0  0  0  0
    2.9372    2.2168   -0.7489 C   0  0  0  0  0  0  0  0  0  0  0  0
    4.3602    2.5337   -1.0257 C   0  0  0  0  0  0  0  0  0  0  0  0
    4.6999    3.5826   -1.6343 O   0  0  0  0  0  0  0  0  0  0  0  0
    5.4118    1.5423   -0.6254 C   0  0  0  0  0  0  0  0  0  0  0  0
    4.9443    0.1312   -1.0090 C   0  0  2  0  0  0  0  0  0  0  0  0
    3.6264   -0.1150   -0.5100 O   0  0  0  0  0  0  0  0  0  0  0  0
    2.6214    0.8622   -0.5139 C   0  0  0  0  0  0  0  0  0  0  0  0
    1.3018    0.4754   -0.2742 C   0  0  0  0  0  0  0  0  0  0  0  0
    5.9004   -0.9101   -0.4805 C   0  0  0  0  0  0  0  0  0  0  0  0
    6.8744   -1.4691   -1.3245 C   0  0  0  0  0  0  0  0  0  0  0  0
    7.7858   -2.4149   -0.8321 C   0  0  0  0  0  0  0  0  0  0  0  0
    8.7442   -2.9705   -1.6783 O   0  0  0  0  0  0  0  0  0  0  0  0
    7.7316   -2.7995    0.5184 C   0  0  0  0  0  0  0  0  0  0  0  0
    8.6226   -3.7382    1.0375 O   0  0  0  0  0  0  0  0  0  0  0  0
    6.7721   -2.2332    1.3634 C   0  0  0  0  0  0  0  0  0  0  0  0
    5.8655   -1.2909    0.8715 C   0  0  0  0  0  0  0  0  0  0  0  0
   -3.9284   -2.1055   -1.9827 C   0  0  2  0  0  0  0  0  0  0  0  0
   -5.3272   -2.0931   -2.1300 O   0  0  0  0  0  0  0  0  0  0  0  0
   -3.3925   -3.5586   -1.8964 C   0  0  2  0  0  0  0  0  0  0  0  0
   -4.2435   -4.4362   -2.5911 O   0  0  0  0  0  0  0  0  0  0  0  0
   -3.2526   -3.9972   -0.4297 C   0  0  1  0  0  0  0  0  0  0  0  0
   -2.7279   -5.2992   -0.3755 O   0  0  0  0  0  0  0  0  0  0  0  0
   -2.4899   -3.9340    2.2820 H   0  0  0  0  0  0  0  0  0  0  0  0
   -3.6547   -2.5857    1.9950 H   0  0  0  0  0  0  0  0  0  0  0  0
   -1.9155   -2.2269    2.3085 H   0  0  0  0  0  0  0  0  0  0  0  0
   -1.2732   -3.3995    0.2224 H   0  0  0  0  0  0  0  0  0  0  0  0
   -4.3478   -1.4753    0.0515 H   0  0  0  0  0  0  0  0  0  0  0  0
   -3.3424    0.3199    1.0583 H   0  0  0  0  0  0  0  0  0  0  0  0
   -4.8505    2.2927   -0.7813 H   0  0  0  0  0  0  0  0  0  0  0  0
   -6.1002    0.5488   -0.3531 H   0  0  0  0  0  0  0  0  0  0  0  0
   -4.5075    2.3223    2.2810 H   0  0  0  0  0  0  0  0  0  0  0  0
   -5.6027    4.2108    0.4210 H   0  0  0  0  0  0  0  0  0  0  0  0
   -3.1833    4.1602    0.1555 H   0  0  0  0  0  0  0  0  0  0  0  0
   -3.0099    4.0686    3.2317 H   0  0  0  0  0  0  0  0  0  0  0  0
   -1.8843    4.9817    2.1778 H   0  0  0  0  0  0  0  0  0  0  0  0
   -3.5638    6.2313    1.4604 H   0  0  0  0  0  0  0  0  0  0  0  0
   -2.2498    2.3737   -0.9691 H   0  0  0  0  0  0  0  0  0  0  0  0
   -0.2026    3.5187   -0.5040 H   0  0  0  0  0  0  0  0  0  0  0  0
    3.0431    4.9808   -0.7829 H   0  0  0  0  0  0  0  0  0  0  0  0
    6.3739    1.7713   -1.1345 H   0  0  0  0  0  0  0  0  0  0  0  0
    5.5648    1.6136    0.4734 H   0  0  0  0  0  0  0  0  0  0  0  0
    4.9008    0.0689   -2.1199 H   0  0  0  0  0  0  0  0  0  0  0  0
    1.0741   -0.5681   -0.0938 H   0  0  0  0  0  0  0  0  0  0  0  0
    6.9273   -1.1702   -2.3642 H   0  0  0  0  0  0  0  0  0  0  0  0
    8.8047   -2.7097   -2.6557 H   0  0  0  0  0  0  0  0  0  0  0  0
    9.3356   -4.1763    0.4667 H   0  0  0  0  0  0  0  0  0  0  0  0
    6.7315   -2.5219    2.4060 H   0  0  0  0  0  0  0  0  0  0  0  0
    5.1375   -0.8565    1.5455 H   0  0  0  0  0  0  0  0  0  0  0  0
   -3.4517   -1.6163   -2.8666 H   0  0  0  0  0  0  0  0  0  0  0  0
   -5.5190   -2.1937   -3.0991 H   0  0  0  0  0  0  0  0  0  0  0  0
   -2.3780   -3.5754   -2.3641 H   0  0  0  0  0  0  0  0  0  0  0  0
   -3.7042   -5.2337   -2.8338 H   0  0  0  0  0  0  0  0  0  0  0  0
   -4.2711   -3.9841    0.0280 H   0  0  0  0  0  0  0  0  0  0  0  0
   -2.9303   -5.6521    0.5297 H   0  0  0  0  0  0  0  0  0  0  0  0
  1  2  1  0
  2  3  1  0
  3  4  1  0
  4  5  1  0
  5  6  1  0
  6  7  1  0
  7  8  1  0
  7  9  1  0
  9 10  1  0
  9 11  1  0
 11 12  1  0
 12 13  1  0
 11 14  1  0
 14 15  1  0
 15 16  1  0
 16 17  1  0
 17 18  2  0
 18 19  1  0
 19 20  1  0
 19 21  2  0
 21 22  1  0
 22 23  2  0
 22 24  1  0
 24 25  1  0
 25 26  1  0
 26 27  1  0
 27 28  2  0
 25 29  1  0
 29 30  2  0
 30 31  1  0
 31 32  1  0
 31 33  2  0
 33 34  1  0
 33 35  1  0
 35 36  2  0
  4 37  1  0
 37 38  1  0
 37 39  1  0
 39 40  1  0
 39 41  1  0
 41 42  1  0
 41  2  1  0
 15  6  1  0
 28 17  1  0
 36 29  1  0
 27 21  1  0
  1 43  1  0
  1 44  1  0
  1 45  1  0
  2 46  1  1
  4 47  1  1
  6 48  1  1
  7 49  1  6
  8 50  1  0
  9 51  1  1
 10 52  1  0
 11 53  1  6
 12 54  1  0
 12 55  1  0
 13 56  1  0
 15 57  1  6
 18 58  1  0
 20 59  1  0
 24 60  1  0
 24 61  1  0
 25 62  1  6
 28 63  1  0
 30 64  1  0
 32 65  1  0
 34 66  1  0
 35 67  1  0
 36 68  1  0
 37 69  1  6
 38 70  1  0
 39 71  1  6
 40 72  1  0
 41 73  1  1
 42 74  1  0
M  END
>  <LIG_ID>  (115) 
114

>  <_smiles>  (115) 
C[C@@H]1O[C@@H](O[C@@H]2[C@@H](O)[C@H](O)[C@@H](CO)O[C@H]2OC2=CC(O)=C3C(=O)C[C@H](OC3=C2)C2=CC(O)=C(O)C=C2)[C@H](O)[C@H](O)[C@H]1O

>  <_name>  (115) 
Neoeriocitrin

>  <_molecular_weight>  (115) 
596.534

>  <_formula>  (115) 
C27H32O15

>  <_logP>  (115) 
-1.4596000000000016

>  <_molecular_wt_calculated>  (115) 
596.5380000000016

>  <_havy_atom_count>  (115) 
42

>  <_hydrogen_acceptors>  (115) 
15

>  <_hydrogen_donors>  (115) 
9

>  <_rotatable_bonds>  (115) 
16

>  <_amide_bonds>  (115) 
0

>  <_ring_count>  (115) 
5

$$$$
Neohesperidin
     RDKit          3D

 77 81  0  0  0  0  0  0  0  0999 V2000
    6.4412   -6.4055    2.1253 C   0  0  0  0  0  0  0  0  0  0  0  0
    5.8913   -5.0944    2.0464 O   0  0  0  0  0  0  0  0  0  0  0  0
    5.1991   -4.5895    0.9346 C   0  0  0  0  0  0  0  0  0  0  0  0
    4.7098   -3.2777    0.9900 C   0  0  0  0  0  0  0  0  0  0  0  0
    4.9241   -2.5123    2.1353 O   0  0  0  0  0  0  0  0  0  0  0  0
    4.0117   -2.7373   -0.0991 C   0  0  0  0  0  0  0  0  0  0  0  0
    3.7828   -3.5043   -1.2560 C   0  0  0  0  0  0  0  0  0  0  0  0
    4.2905   -4.8128   -1.3108 C   0  0  0  0  0  0  0  0  0  0  0  0
    4.9859   -5.3538   -0.2270 C   0  0  0  0  0  0  0  0  0  0  0  0
    3.0653   -2.9346   -2.4668 C   0  0  2  0  0  0  0  0  0  0  0  0
    4.0411   -2.2081   -3.4110 C   0  0  0  0  0  0  0  0  0  0  0  0
    4.3448   -0.8239   -2.9195 C   0  0  0  0  0  0  0  0  0  0  0  0
    5.4959   -0.3421   -3.0964 O   0  0  0  0  0  0  0  0  0  0  0  0
    3.2680   -0.0281   -2.2908 C   0  0  0  0  0  0  0  0  0  0  0  0
    3.3759    1.3604   -2.0713 C   0  0  0  0  0  0  0  0  0  0  0  0
    4.5332    2.0501   -2.4323 O   0  0  0  0  0  0  0  0  0  0  0  0
    2.3055    2.0573   -1.4933 C   0  0  0  0  0  0  0  0  0  0  0  0
    1.1266    1.3954   -1.1372 C   0  0  0  0  0  0  0  0  0  0  0  0
    0.0874    2.1510   -0.5733 O   0  0  0  0  0  0  0  0  0  0  0  0
   -1.2076    1.6461   -0.2400 C   0  0  2  0  0  0  0  0  0  0  0  0
   -1.8452    1.1280   -1.4020 O   0  0  0  0  0  0  0  0  0  0  0  0
   -2.6161    2.0677   -2.1491 C   0  0  2  0  0  0  0  0  0  0  0  0
   -2.5499    1.6676   -3.6313 C   0  0  0  0  0  0  0  0  0  0  0  0
   -2.9923    0.3474   -3.8026 O   0  0  0  0  0  0  0  0  0  0  0  0
   -2.1759    3.5436   -1.9573 C   0  0  1  0  0  0  0  0  0  0  0  0
   -3.0044    4.4027   -2.7023 O   0  0  0  0  0  0  0  0  0  0  0  0
   -2.2609    3.9426   -0.4665 C   0  0  2  0  0  0  0  0  0  0  0  0
   -1.3096    4.9390   -0.1894 O   0  0  0  0  0  0  0  0  0  0  0  0
   -2.0280    2.7349    0.4735 C   0  0  1  0  0  0  0  0  0  0  0  0
   -3.2744    2.1710    0.8537 O   0  0  0  0  0  0  0  0  0  0  0  0
   -3.7115    2.6764    2.1061 C   0  0  2  0  0  0  0  0  0  0  0  0
   -2.9711    2.1092    3.1796 O   0  0  0  0  0  0  0  0  0  0  0  0
   -3.1135    0.6977    3.2286 C   0  0  1  0  0  0  0  0  0  0  0  0
   -2.1853    0.1624    4.3197 C   0  0  0  0  0  0  0  0  0  0  0  0
   -4.5829    0.3043    3.5180 C   0  0  2  0  0  0  0  0  0  0  0  0
   -4.7388   -1.0936    3.5601 O   0  0  0  0  0  0  0  0  0  0  0  0
   -5.5146    0.9159    2.4561 C   0  0  1  0  0  0  0  0  0  0  0  0
   -6.8523    0.7154    2.8333 O   0  0  0  0  0  0  0  0  0  0  0  0
   -5.2253    2.4204    2.2729 C   0  0  1  0  0  0  0  0  0  0  0  0
   -5.7564    3.1787    3.3340 O   0  0  0  0  0  0  0  0  0  0  0  0
    1.0257    0.0093   -1.3511 C   0  0  0  0  0  0  0  0  0  0  0  0
    2.0907   -0.6989   -1.9135 C   0  0  0  0  0  0  0  0  0  0  0  0
    1.9753   -2.0865   -2.0811 O   0  0  0  0  0  0  0  0  0  0  0  0
    6.9290   -6.5351    3.1130 H   0  0  0  0  0  0  0  0  0  0  0  0
    5.6364   -7.1639    2.0240 H   0  0  0  0  0  0  0  0  0  0  0  0
    7.2038   -6.5481    1.3308 H   0  0  0  0  0  0  0  0  0  0  0  0
    4.5849   -1.5601    2.2089 H   0  0  0  0  0  0  0  0  0  0  0  0
    3.6550   -1.7206   -0.0309 H   0  0  0  0  0  0  0  0  0  0  0  0
    4.1497   -5.4179   -2.1981 H   0  0  0  0  0  0  0  0  0  0  0  0
    5.3568   -6.3666   -0.3046 H   0  0  0  0  0  0  0  0  0  0  0  0
    2.6232   -3.7826   -3.0346 H   0  0  0  0  0  0  0  0  0  0  0  0
    4.9792   -2.7952   -3.5244 H   0  0  0  0  0  0  0  0  0  0  0  0
    3.5741   -2.1204   -4.4155 H   0  0  0  0  0  0  0  0  0  0  0  0
    4.6260    3.0483   -2.2843 H   0  0  0  0  0  0  0  0  0  0  0  0
    2.3853    3.1245   -1.3271 H   0  0  0  0  0  0  0  0  0  0  0  0
   -1.0785    0.8106    0.4819 H   0  0  0  0  0  0  0  0  0  0  0  0
   -3.6780    1.9763   -1.8280 H   0  0  0  0  0  0  0  0  0  0  0  0
   -1.5100    1.7850   -4.0159 H   0  0  0  0  0  0  0  0  0  0  0  0
   -3.2104    2.3279   -4.2316 H   0  0  0  0  0  0  0  0  0  0  0  0
   -2.2154   -0.2427   -3.6181 H   0  0  0  0  0  0  0  0  0  0  0  0
   -1.1150    3.6408   -2.2953 H   0  0  0  0  0  0  0  0  0  0  0  0
   -2.5369    4.5991   -3.5558 H   0  0  0  0  0  0  0  0  0  0  0  0
   -3.2788    4.3497   -0.2561 H   0  0  0  0  0  0  0  0  0  0  0  0
   -1.6403    5.7766   -0.6078 H   0  0  0  0  0  0  0  0  0  0  0  0
   -1.4258    3.0591    1.3581 H   0  0  0  0  0  0  0  0  0  0  0  0
   -3.5778    3.7831    2.1416 H   0  0  0  0  0  0  0  0  0  0  0  0
   -2.7819    0.2367    2.2705 H   0  0  0  0  0  0  0  0  0  0  0  0
   -2.2262   -0.9468    4.3584 H   0  0  0  0  0  0  0  0  0  0  0  0
   -1.1388    0.4638    4.1008 H   0  0  0  0  0  0  0  0  0  0  0  0
   -2.4731    0.5731    5.3111 H   0  0  0  0  0  0  0  0  0  0  0  0
   -4.8679    0.7046    4.5156 H   0  0  0  0  0  0  0  0  0  0  0  0
   -4.4481   -1.4573    2.6829 H   0  0  0  0  0  0  0  0  0  0  0  0
   -5.3231    0.4020    1.4839 H   0  0  0  0  0  0  0  0  0  0  0  0
   -7.4057    0.8932    2.0283 H   0  0  0  0  0  0  0  0  0  0  0  0
   -5.7339    2.7570    1.3428 H   0  0  0  0  0  0  0  0  0  0  0  0
   -5.2284    2.9822    4.1503 H   0  0  0  0  0  0  0  0  0  0  0  0
    0.1348   -0.5349   -1.0706 H   0  0  0  0  0  0  0  0  0  0  0  0
  1  2  1  0
  2  3  1  0
  3  4  2  0
  4  5  1  0
  4  6  1  0
  6  7  2  0
  7  8  1  0
  8  9  2  0
  7 10  1  0
 10 11  1  0
 11 12  1  0
 12 13  2  0
 12 14  1  0
 14 15  2  0
 15 16  1  0
 15 17  1  0
 17 18  2  0
 18 19  1  0
 19 20  1  0
 20 21  1  0
 21 22  1  0
 22 23  1  0
 23 24  1  0
 22 25  1  0
 25 26  1  0
 25 27  1  0
 27 28  1  0
 27 29  1  0
 29 30  1  0
 30 31  1  0
 31 32  1  0
 32 33  1  0
 33 34  1  0
 33 35  1  0
 35 36  1  0
 35 37  1  0
 37 38  1  0
 37 39  1  0
 39 40  1  0
 18 41  1  0
 41 42  2  0
 42 43  1  0
  9  3  1  0
 43 10  1  0
 42 14  1  0
 29 20  1  0
 39 31  1  0
  1 44  1  0
  1 45  1  0
  1 46  1  0
  5 47  1  0
  6 48  1  0
  8 49  1  0
  9 50  1  0
 10 51  1  6
 11 52  1  0
 11 53  1  0
 16 54  1  0
 17 55  1  0
 20 56  1  1
 22 57  1  1
 23 58  1  0
 23 59  1  0
 24 60  1  0
 25 61  1  6
 26 62  1  0
 27 63  1  6
 28 64  1  0
 29 65  1  1
 31 66  1  6
 33 67  1  6
 34 68  1  0
 34 69  1  0
 34 70  1  0
 35 71  1  1
 36 72  1  0
 37 73  1  6
 38 74  1  0
 39 75  1  6
 40 76  1  0
 41 77  1  0
M  END
>  <LIG_ID>  (116) 
115

>  <_smiles>  (116) 
COC1=C(O)C=C(C=C1)[C@@H]1CC(=O)C2=C(O)C=C(O[C@@H]3O[C@H](CO)[C@@H](O)[C@H](O)[C@H]3O[C@@H]3O[C@@H](C)[C@H](O)[C@@H](O)[C@H]3O)C=C2O1

>  <_name>  (116) 
Neohesperidin

>  <_molecular_weight>  (116) 
610.561

>  <_formula>  (116) 
C28H34O15

>  <_logP>  (116) 
-1.1566000000000003

>  <_molecular_wt_calculated>  (116) 
610.5650000000016

>  <_havy_atom_count>  (116) 
43

>  <_hydrogen_acceptors>  (116) 
15

>  <_hydrogen_donors>  (116) 
8

>  <_rotatable_bonds>  (116) 
17

>  <_amide_bonds>  (116) 
0

>  <_ring_count>  (116) 
5

$$$$
Poncirin
     RDKit          3D

 76 80  0  0  0  0  0  0  0  0999 V2000
    8.5773    1.5337    3.3426 C   0  0  0  0  0  0  0  0  0  0  0  0
    8.8956    1.0388    2.0460 O   0  0  0  0  0  0  0  0  0  0  0  0
    7.9440    0.6555    1.0892 C   0  0  0  0  0  0  0  0  0  0  0  0
    8.3965    0.1869   -0.1481 C   0  0  0  0  0  0  0  0  0  0  0  0
    7.4884   -0.2075   -1.1342 C   0  0  0  0  0  0  0  0  0  0  0  0
    6.1043   -0.1518   -0.8963 C   0  0  0  0  0  0  0  0  0  0  0  0
    5.6500    0.3347    0.3437 C   0  0  0  0  0  0  0  0  0  0  0  0
    6.5598    0.7289    1.3291 C   0  0  0  0  0  0  0  0  0  0  0  0
    5.1435   -0.5499   -2.0022 C   0  0  2  0  0  0  0  0  0  0  0  0
    4.7520    0.6595   -2.8716 C   0  0  0  0  0  0  0  0  0  0  0  0
    3.6818    1.4787   -2.2133 C   0  0  0  0  0  0  0  0  0  0  0  0
    3.6828    2.7307   -2.3575 O   0  0  0  0  0  0  0  0  0  0  0  0
    2.6102    0.7939   -1.4577 C   0  0  0  0  0  0  0  0  0  0  0  0
    1.4214    1.4419   -1.0645 C   0  0  0  0  0  0  0  0  0  0  0  0
    1.2147    2.7884   -1.3643 O   0  0  0  0  0  0  0  0  0  0  0  0
    0.4332    0.7254   -0.3733 C   0  0  0  0  0  0  0  0  0  0  0  0
    0.6122   -0.6397   -0.0785 C   0  0  0  0  0  0  0  0  0  0  0  0
   -0.3487   -1.4078    0.6001 O   0  0  0  0  0  0  0  0  0  0  0  0
   -1.6843   -1.0005    0.9131 C   0  0  2  0  0  0  0  0  0  0  0  0
   -2.2060   -1.8650    1.9155 O   0  0  0  0  0  0  0  0  0  0  0  0
   -2.9207   -3.0030    1.4370 C   0  0  2  0  0  0  0  0  0  0  0  0
   -2.7586   -4.1236    2.4797 C   0  0  0  0  0  0  0  0  0  0  0  0
   -3.6608   -5.1726    2.2496 O   0  0  0  0  0  0  0  0  0  0  0  0
   -2.4737   -3.4725    0.0271 C   0  0  1  0  0  0  0  0  0  0  0  0
   -3.2097   -4.6030   -0.3656 O   0  0  0  0  0  0  0  0  0  0  0  0
   -2.6786   -2.3416   -1.0048 C   0  0  2  0  0  0  0  0  0  0  0  0
   -1.7295   -2.4867   -2.0308 O   0  0  0  0  0  0  0  0  0  0  0  0
   -2.5579   -0.9376   -0.3602 C   0  0  1  0  0  0  0  0  0  0  0  0
   -3.8438   -0.4624    0.0092 O   0  0  0  0  0  0  0  0  0  0  0  0
   -4.3986    0.3697   -0.9985 C   0  0  2  0  0  0  0  0  0  0  0  0
   -3.7597    1.6400   -1.0325 O   0  0  0  0  0  0  0  0  0  0  0  0
   -3.8982    2.3314    0.1993 C   0  0  1  0  0  0  0  0  0  0  0  0
   -3.0754    3.6179    0.1192 C   0  0  0  0  0  0  0  0  0  0  0  0
   -5.3863    2.6505    0.4849 C   0  0  2  0  0  0  0  0  0  0  0  0
   -5.5378    3.3273    1.7093 O   0  0  0  0  0  0  0  0  0  0  0  0
   -6.2172    1.3546    0.4823 C   0  0  1  0  0  0  0  0  0  0  0  0
   -7.5833    1.6724    0.5495 O   0  0  0  0  0  0  0  0  0  0  0  0
   -5.9199    0.5141   -0.7770 C   0  0  1  0  0  0  0  0  0  0  0  0
   -6.5518    1.0519   -1.9148 O   0  0  0  0  0  0  0  0  0  0  0  0
    1.7989   -1.2692   -0.4634 C   0  0  0  0  0  0  0  0  0  0  0  0
    2.7968   -0.5626   -1.1383 C   0  0  0  0  0  0  0  0  0  0  0  0
    3.9882   -1.2192   -1.4792 O   0  0  0  0  0  0  0  0  0  0  0  0
    7.9847    2.4692    3.2593 H   0  0  0  0  0  0  0  0  0  0  0  0
    8.0084    0.7700    3.9137 H   0  0  0  0  0  0  0  0  0  0  0  0
    9.5180    1.7563    3.8866 H   0  0  0  0  0  0  0  0  0  0  0  0
    9.4591    0.1318   -0.3484 H   0  0  0  0  0  0  0  0  0  0  0  0
    7.8672   -0.5552   -2.0874 H   0  0  0  0  0  0  0  0  0  0  0  0
    4.5951    0.4147    0.5598 H   0  0  0  0  0  0  0  0  0  0  0  0
    6.1759    1.0928    2.2724 H   0  0  0  0  0  0  0  0  0  0  0  0
    5.6626   -1.2793   -2.6621 H   0  0  0  0  0  0  0  0  0  0  0  0
    4.3547    0.2931   -3.8426 H   0  0  0  0  0  0  0  0  0  0  0  0
    5.6451    1.2869   -3.0868 H   0  0  0  0  0  0  0  0  0  0  0  0
    0.3658    3.2708   -1.0937 H   0  0  0  0  0  0  0  0  0  0  0  0
   -0.4665    1.2442   -0.0769 H   0  0  0  0  0  0  0  0  0  0  0  0
   -1.6518    0.0121    1.3665 H   0  0  0  0  0  0  0  0  0  0  0  0
   -4.0007   -2.7360    1.3967 H   0  0  0  0  0  0  0  0  0  0  0  0
   -2.9175   -3.7119    3.5030 H   0  0  0  0  0  0  0  0  0  0  0  0
   -1.7228   -4.5239    2.4437 H   0  0  0  0  0  0  0  0  0  0  0  0
   -4.5525   -4.8512    2.5449 H   0  0  0  0  0  0  0  0  0  0  0  0
   -1.3913   -3.7389    0.0843 H   0  0  0  0  0  0  0  0  0  0  0  0
   -2.7198   -5.0137   -1.1253 H   0  0  0  0  0  0  0  0  0  0  0  0
   -3.7016   -2.4478   -1.4393 H   0  0  0  0  0  0  0  0  0  0  0  0
   -2.0637   -1.9667   -2.8080 H   0  0  0  0  0  0  0  0  0  0  0  0
   -2.0524   -0.2484   -1.0770 H   0  0  0  0  0  0  0  0  0  0  0  0
   -4.2731   -0.1062   -1.9992 H   0  0  0  0  0  0  0  0  0  0  0  0
   -3.4741    1.7307    1.0357 H   0  0  0  0  0  0  0  0  0  0  0  0
   -3.1149    4.1682    1.0830 H   0  0  0  0  0  0  0  0  0  0  0  0
   -3.4573    4.2741   -0.6919 H   0  0  0  0  0  0  0  0  0  0  0  0
   -2.0146    3.3702   -0.0953 H   0  0  0  0  0  0  0  0  0  0  0  0
   -5.7664    3.3193   -0.3182 H   0  0  0  0  0  0  0  0  0  0  0  0
   -5.1633    2.7481    2.4238 H   0  0  0  0  0  0  0  0  0  0  0  0
   -5.9324    0.7538    1.3790 H   0  0  0  0  0  0  0  0  0  0  0  0
   -8.0595    0.8357    0.7928 H   0  0  0  0  0  0  0  0  0  0  0  0
   -6.3408   -0.5031   -0.6183 H   0  0  0  0  0  0  0  0  0  0  0  0
   -6.1016    1.9051   -2.1454 H   0  0  0  0  0  0  0  0  0  0  0  0
    1.9506   -2.3155   -0.2290 H   0  0  0  0  0  0  0  0  0  0  0  0
  1  2  1  0
  2  3  1  0
  3  4  2  0
  4  5  1  0
  5  6  2  0
  6  7  1  0
  7  8  2  0
  6  9  1  0
  9 10  1  0
 10 11  1  0
 11 12  2  0
 11 13  1  0
 13 14  2  0
 14 15  1  0
 14 16  1  0
 16 17  2  0
 17 18  1  0
 18 19  1  0
 19 20  1  0
 20 21  1  0
 21 22  1  0
 22 23  1  0
 21 24  1  0
 24 25  1  0
 24 26  1  0
 26 27  1  0
 26 28  1  0
 28 29  1  0
 29 30  1  0
 30 31  1  0
 31 32  1  0
 32 33  1  0
 32 34  1  0
 34 35  1  0
 34 36  1  0
 36 37  1  0
 36 38  1  0
 38 39  1  0
 17 40  1  0
 40 41  2  0
 41 42  1  0
  8  3  1  0
 42  9  1  0
 41 13  1  0
 28 19  1  0
 38 30  1  0
  1 43  1  0
  1 44  1  0
  1 45  1  0
  4 46  1  0
  5 47  1  0
  7 48  1  0
  8 49  1  0
  9 50  1  6
 10 51  1  0
 10 52  1  0
 15 53  1  0
 16 54  1  0
 19 55  1  1
 21 56  1  6
 22 57  1  0
 22 58  1  0
 23 59  1  0
 24 60  1  1
 25 61  1  0
 26 62  1  6
 27 63  1  0
 28 64  1  6
 30 65  1  6
 32 66  1  1
 33 67  1  0
 33 68  1  0
 33 69  1  0
 34 70  1  6
 35 71  1  0
 36 72  1  1
 37 73  1  0
 38 74  1  1
 39 75  1  0
 40 76  1  0
M  END
>  <LIG_ID>  (117) 
116

>  <_smiles>  (117) 
COC1=CC=C(C=C1)[C@@H]1CC(=O)C2=C(O)C=C(O[C@@H]3O[C@H](CO)[C@@H](O)[C@H](O)[C@H]3O[C@@H]3O[C@@H](C)[C@H](O)[C@@H](O)[C@H]3O)C=C2O1

>  <_name>  (117) 
Poncirin

>  <_molecular_weight>  (117) 
594.561

>  <_formula>  (117) 
C28H34O14

>  <_logP>  (117) 
-0.8622000000000003

>  <_molecular_wt_calculated>  (117) 
594.5660000000016

>  <_havy_atom_count>  (117) 
42

>  <_hydrogen_acceptors>  (117) 
14

>  <_hydrogen_donors>  (117) 
7

>  <_rotatable_bonds>  (117) 
16

>  <_amide_bonds>  (117) 
0

>  <_ring_count>  (117) 
5

$$$$
Didymin
     RDKit          3D

 76 80  0  0  0  0  0  0  0  0999 V2000
    8.4099    3.0959   -3.4736 C   0  0  0  0  0  0  0  0  0  0  0  0
    7.5481    2.0675   -2.9971 O   0  0  0  0  0  0  0  0  0  0  0  0
    6.6122    2.2336   -1.9655 C   0  0  0  0  0  0  0  0  0  0  0  0
    6.4385    3.4568   -1.2929 C   0  0  0  0  0  0  0  0  0  0  0  0
    5.4914    3.5713   -0.2714 C   0  0  0  0  0  0  0  0  0  0  0  0
    4.6914    2.4740    0.0916 C   0  0  0  0  0  0  0  0  0  0  0  0
    4.8810    1.2489   -0.5743 C   0  0  0  0  0  0  0  0  0  0  0  0
    5.8284    1.1361   -1.5956 C   0  0  0  0  0  0  0  0  0  0  0  0
    3.6999    2.6221    1.2315 C   0  0  2  0  0  0  0  0  0  0  0  0
    4.3336    2.2440    2.5832 C   0  0  0  0  0  0  0  0  0  0  0  0
    4.3577    0.7566    2.7758 C   0  0  0  0  0  0  0  0  0  0  0  0
    5.3235    0.2264    3.3878 O   0  0  0  0  0  0  0  0  0  0  0  0
    3.2158   -0.0523    2.2966 C   0  0  0  0  0  0  0  0  0  0  0  0
    3.0114   -1.3909    2.6903 C   0  0  0  0  0  0  0  0  0  0  0  0
    3.9072   -2.0219    3.5536 O   0  0  0  0  0  0  0  0  0  0  0  0
    1.8923   -2.0927    2.2183 C   0  0  0  0  0  0  0  0  0  0  0  0
    0.9667   -1.4697    1.3610 C   0  0  0  0  0  0  0  0  0  0  0  0
   -0.1722   -2.1232    0.8649 O   0  0  0  0  0  0  0  0  0  0  0  0
   -0.6011   -3.4477    1.2013 C   0  0  2  0  0  0  0  0  0  0  0  0
   -1.5544   -3.9074    0.2553 O   0  0  0  0  0  0  0  0  0  0  0  0
   -2.7254   -3.0943    0.1710 C   0  0  2  0  0  0  0  0  0  0  0  0
   -2.6112   -2.1117   -1.0069 C   0  0  0  0  0  0  0  0  0  0  0  0
   -3.8745   -1.5263   -1.2768 O   0  0  0  0  0  0  0  0  0  0  0  0
   -3.8651   -0.1189   -1.0925 C   0  0  2  0  0  0  0  0  0  0  0  0
   -5.1902    0.3104   -0.8049 O   0  0  0  0  0  0  0  0  0  0  0  0
   -5.9641    0.4299   -1.9840 C   0  0  1  0  0  0  0  0  0  0  0  0
   -7.4411    0.5162   -1.5999 C   0  0  0  0  0  0  0  0  0  0  0  0
   -5.5245    1.6805   -2.7861 C   0  0  2  0  0  0  0  0  0  0  0  0
   -5.8811    1.5018   -4.1336 O   0  0  0  0  0  0  0  0  0  0  0  0
   -3.9930    1.9158   -2.6661 C   0  0  1  0  0  0  0  0  0  0  0  0
   -3.7098    2.9141   -1.7136 O   0  0  0  0  0  0  0  0  0  0  0  0
   -3.2514    0.6000   -2.3393 C   0  0  1  0  0  0  0  0  0  0  0  0
   -1.8695    0.8189   -2.1916 O   0  0  0  0  0  0  0  0  0  0  0  0
   -3.1105   -2.3848    1.5026 C   0  0  1  0  0  0  0  0  0  0  0  0
   -4.4882   -2.1004    1.5478 O   0  0  0  0  0  0  0  0  0  0  0  0
   -2.6875   -3.2600    2.6893 C   0  0  2  0  0  0  0  0  0  0  0  0
   -3.0405   -2.6217    3.8895 O   0  0  0  0  0  0  0  0  0  0  0  0
   -1.1620   -3.5144    2.6472 C   0  0  1  0  0  0  0  0  0  0  0  0
   -0.8797   -4.7787    3.1909 O   0  0  0  0  0  0  0  0  0  0  0  0
    1.1805   -0.1446    0.9728 C   0  0  0  0  0  0  0  0  0  0  0  0
    2.2987    0.5600    1.4240 C   0  0  0  0  0  0  0  0  0  0  0  0
    2.5002    1.8764    0.9848 O   0  0  0  0  0  0  0  0  0  0  0  0
    9.0711    3.4499   -2.6547 H   0  0  0  0  0  0  0  0  0  0  0  0
    9.0417    2.6901   -4.2900 H   0  0  0  0  0  0  0  0  0  0  0  0
    7.8109    3.9410   -3.8740 H   0  0  0  0  0  0  0  0  0  0  0  0
    7.0325    4.3236   -1.5485 H   0  0  0  0  0  0  0  0  0  0  0  0
    5.3838    4.5201    0.2399 H   0  0  0  0  0  0  0  0  0  0  0  0
    4.3038    0.3748   -0.3127 H   0  0  0  0  0  0  0  0  0  0  0  0
    5.9571    0.1873   -2.1011 H   0  0  0  0  0  0  0  0  0  0  0  0
    3.4030    3.6922    1.2915 H   0  0  0  0  0  0  0  0  0  0  0  0
    5.3614    2.6628    2.6595 H   0  0  0  0  0  0  0  0  0  0  0  0
    3.7273    2.6859    3.4029 H   0  0  0  0  0  0  0  0  0  0  0  0
    3.7749   -2.9818    3.8502 H   0  0  0  0  0  0  0  0  0  0  0  0
    1.7516   -3.1168    2.5335 H   0  0  0  0  0  0  0  0  0  0  0  0
    0.2758   -4.1253    1.1182 H   0  0  0  0  0  0  0  0  0  0  0  0
   -3.5529   -3.7929   -0.0828 H   0  0  0  0  0  0  0  0  0  0  0  0
   -2.3083   -2.6852   -1.9086 H   0  0  0  0  0  0  0  0  0  0  0  0
   -1.7939   -1.3800   -0.8235 H   0  0  0  0  0  0  0  0  0  0  0  0
   -3.2756    0.1580   -0.1883 H   0  0  0  0  0  0  0  0  0  0  0  0
   -5.8508   -0.4827   -2.6174 H   0  0  0  0  0  0  0  0  0  0  0  0
   -7.7432   -0.4085   -1.0638 H   0  0  0  0  0  0  0  0  0  0  0  0
   -8.0705    0.6183   -2.5096 H   0  0  0  0  0  0  0  0  0  0  0  0
   -7.6201    1.3866   -0.9329 H   0  0  0  0  0  0  0  0  0  0  0  0
   -6.0526    2.5785   -2.3838 H   0  0  0  0  0  0  0  0  0  0  0  0
   -5.8817    2.4017   -4.5534 H   0  0  0  0  0  0  0  0  0  0  0  0
   -3.6072    2.2862   -3.6414 H   0  0  0  0  0  0  0  0  0  0  0  0
   -4.0879    2.6267   -0.8428 H   0  0  0  0  0  0  0  0  0  0  0  0
   -3.3833   -0.0678   -3.2198 H   0  0  0  0  0  0  0  0  0  0  0  0
   -1.7332    1.3794   -1.3841 H   0  0  0  0  0  0  0  0  0  0  0  0
   -2.5672   -1.4171    1.5808 H   0  0  0  0  0  0  0  0  0  0  0  0
   -4.9782   -2.9640    1.5470 H   0  0  0  0  0  0  0  0  0  0  0  0
   -3.2287   -4.2335    2.6085 H   0  0  0  0  0  0  0  0  0  0  0  0
   -3.0240   -3.3162    4.5986 H   0  0  0  0  0  0  0  0  0  0  0  0
   -0.6493   -2.7331    3.2553 H   0  0  0  0  0  0  0  0  0  0  0  0
   -0.9547   -4.6925    4.1772 H   0  0  0  0  0  0  0  0  0  0  0  0
    0.4774    0.3382    0.3051 H   0  0  0  0  0  0  0  0  0  0  0  0
  1  2  1  0
  2  3  1  0
  3  4  2  0
  4  5  1  0
  5  6  2  0
  6  7  1  0
  7  8  2  0
  6  9  1  0
  9 10  1  0
 10 11  1  0
 11 12  2  0
 11 13  1  0
 13 14  2  0
 14 15  1  0
 14 16  1  0
 16 17  2  0
 17 18  1  0
 18 19  1  0
 19 20  1  0
 20 21  1  0
 21 22  1  0
 22 23  1  0
 23 24  1  0
 24 25  1  0
 25 26  1  0
 26 27  1  0
 26 28  1  0
 28 29  1  0
 28 30  1  0
 30 31  1  0
 30 32  1  0
 32 33  1  0
 21 34  1  0
 34 35  1  0
 34 36  1  0
 36 37  1  0
 36 38  1  0
 38 39  1  0
 17 40  1  0
 40 41  2  0
 41 42  1  0
  8  3  1  0
 42  9  1  0
 41 13  1  0
 38 19  1  0
 32 24  1  0
  1 43  1  0
  1 44  1  0
  1 45  1  0
  4 46  1  0
  5 47  1  0
  7 48  1  0
  8 49  1  0
  9 50  1  1
 10 51  1  0
 10 52  1  0
 15 53  1  0
 16 54  1  0
 19 55  1  1
 21 56  1  6
 22 57  1  0
 22 58  1  0
 24 59  1  1
 26 60  1  6
 27 61  1  0
 27 62  1  0
 27 63  1  0
 28 64  1  1
 29 65  1  0
 30 66  1  6
 31 67  1  0
 32 68  1  6
 33 69  1  0
 34 70  1  1
 35 71  1  0
 36 72  1  6
 37 73  1  0
 38 74  1  1
 39 75  1  0
 40 76  1  0
M  END
>  <LIG_ID>  (118) 
117

>  <_smiles>  (118) 
COC1=CC=C(C=C1)[C@@H]1CC(=O)C2=C(O)C=C(O[C@@H]3O[C@H](CO[C@@H]4O[C@@H](C)[C@H](O)[C@@H](O)[C@H]4O)[C@@H](O)[C@H](O)[C@H]3O)C=C2O1

>  <_name>  (118) 
Didymin

>  <_molecular_weight>  (118) 
594.561

>  <_formula>  (118) 
C28H34O14

>  <_logP>  (118) 
-0.8622000000000001

>  <_molecular_wt_calculated>  (118) 
594.5660000000016

>  <_havy_atom_count>  (118) 
42

>  <_hydrogen_acceptors>  (118) 
14

>  <_hydrogen_donors>  (118) 
7

>  <_rotatable_bonds>  (118) 
16

>  <_amide_bonds>  (118) 
0

>  <_ring_count>  (118) 
5

$$$$
Narirutin 4'-O-glucoside
     RDKit          3D

 94 99  0  0  0  0  0  0  0  0999 V2000
   -5.2640    0.6874   -3.4813 C   0  0  0  0  0  0  0  0  0  0  0  0
   -5.3437   -0.7817   -3.9035 C   0  0  0  0  0  0  0  0  0  0  0  0
   -4.0870   -1.3958   -3.7001 O   0  0  0  0  0  0  0  0  0  0  0  0
   -4.2035   -2.8190   -3.6952 C   0  0  0  0  0  0  0  0  0  0  0  0
   -4.6579   -3.2882   -2.4364 O   0  0  0  0  0  0  0  0  0  0  0  0
   -3.7601   -2.9100   -1.4118 C   0  0  0  0  0  0  0  0  0  0  0  0
   -4.2177   -3.4986   -0.0694 C   0  0  0  0  0  0  0  0  0  0  0  0
   -3.2018   -3.3078    0.9167 O   0  0  0  0  0  0  0  0  0  0  0  0
   -3.4719   -2.2638    1.8414 C   0  0  0  0  0  0  0  0  0  0  0  0
   -3.5752   -0.9965    1.1826 O   0  0  0  0  0  0  0  0  0  0  0  0
   -2.5348   -0.3514    0.4965 C   0  0  0  0  0  0  0  0  0  0  0  0
   -1.2345   -0.8797    0.4217 C   0  0  0  0  0  0  0  0  0  0  0  0
   -0.2442   -0.2173   -0.3084 C   0  0  0  0  0  0  0  0  0  0  0  0
   -0.5451    0.9742   -0.9931 C   0  0  0  0  0  0  0  0  0  0  0  0
    0.5301    1.6020   -1.7915 C   0  0  0  0  0  0  0  0  0  0  0  0
    0.4016    2.7641   -2.2620 O   0  0  0  0  0  0  0  0  0  0  0  0
    1.7694    0.8148   -2.0976 C   0  0  0  0  0  0  0  0  0  0  0  0
    2.1800   -0.0661   -0.9031 C   0  0  0  0  0  0  0  0  0  0  0  0
    1.0524   -0.7507   -0.3410 O   0  0  0  0  0  0  0  0  0  0  0  0
    2.9254    0.7357    0.1485 C   0  0  0  0  0  0  0  0  0  0  0  0
    2.2513    1.4351    1.1665 C   0  0  0  0  0  0  0  0  0  0  0  0
    2.9654    2.1944    2.0974 C   0  0  0  0  0  0  0  0  0  0  0  0
    4.3593    2.2815    2.0285 C   0  0  0  0  0  0  0  0  0  0  0  0
    5.0247    3.0561    2.9914 O   0  0  0  0  0  0  0  0  0  0  0  0
    6.4415    3.1928    3.1012 C   0  0  0  0  0  0  0  0  0  0  0  0
    7.0051    1.9396    3.4409 O   0  0  0  0  0  0  0  0  0  0  0  0
    8.4291    1.9458    3.3665 C   0  0  0  0  0  0  0  0  0  0  0  0
    8.9029    1.4181    2.0005 C   0  0  0  0  0  0  0  0  0  0  0  0
    8.3778    0.1405    1.7589 O   0  0  0  0  0  0  0  0  0  0  0  0
    9.0970    3.3000    3.7647 C   0  0  0  0  0  0  0  0  0  0  0  0
    9.3330    4.0926    2.6261 O   0  0  0  0  0  0  0  0  0  0  0  0
    8.1955    4.0716    4.7499 C   0  0  0  0  0  0  0  0  0  0  0  0
    8.1921    3.4460    6.0113 O   0  0  0  0  0  0  0  0  0  0  0  0
    6.7510    4.2328    4.1978 C   0  0  0  0  0  0  0  0  0  0  0  0
    6.5769    5.5191    3.6603 O   0  0  0  0  0  0  0  0  0  0  0  0
    5.0368    1.6004    1.0015 C   0  0  0  0  0  0  0  0  0  0  0  0
    4.3248    0.8401    0.0699 C   0  0  0  0  0  0  0  0  0  0  0  0
   -1.8459    1.5116   -0.9120 C   0  0  0  0  0  0  0  0  0  0  0  0
   -2.1737    2.6884   -1.5850 O   0  0  0  0  0  0  0  0  0  0  0  0
   -2.8246    0.8486   -0.1593 C   0  0  0  0  0  0  0  0  0  0  0  0
   -4.7442   -2.5555    2.6744 C   0  0  0  0  0  0  0  0  0  0  0  0
   -5.2452   -1.3631    3.2244 O   0  0  0  0  0  0  0  0  0  0  0  0
   -5.8510   -3.2433    1.8386 C   0  0  0  0  0  0  0  0  0  0  0  0
   -5.8556   -4.6277    2.0867 O   0  0  0  0  0  0  0  0  0  0  0  0
   -5.6325   -2.9997    0.3393 C   0  0  0  0  0  0  0  0  0  0  0  0
   -6.6099   -3.6805   -0.4067 O   0  0  0  0  0  0  0  0  0  0  0  0
   -5.1507   -3.3599   -4.8088 C   0  0  0  0  0  0  0  0  0  0  0  0
   -4.6582   -4.5690   -5.3260 O   0  0  0  0  0  0  0  0  0  0  0  0
   -5.2869   -2.3324   -5.9417 C   0  0  0  0  0  0  0  0  0  0  0  0
   -6.1858   -2.8140   -6.9068 O   0  0  0  0  0  0  0  0  0  0  0  0
   -5.7797   -0.9689   -5.3840 C   0  0  0  0  0  0  0  0  0  0  0  0
   -5.3301    0.0798   -6.2081 O   0  0  0  0  0  0  0  0  0  0  0  0
   -6.2225    1.2034   -3.7024 H   0  0  0  0  0  0  0  0  0  0  0  0
   -4.4352    1.2077   -4.0061 H   0  0  0  0  0  0  0  0  0  0  0  0
   -5.0741    0.7496   -2.3888 H   0  0  0  0  0  0  0  0  0  0  0  0
   -6.1138   -1.2475   -3.2421 H   0  0  0  0  0  0  0  0  0  0  0  0
   -3.1881   -3.2294   -3.9026 H   0  0  0  0  0  0  0  0  0  0  0  0
   -2.7348   -3.2895   -1.6265 H   0  0  0  0  0  0  0  0  0  0  0  0
   -3.7266   -1.8059   -1.3254 H   0  0  0  0  0  0  0  0  0  0  0  0
   -4.2925   -4.5990   -0.2179 H   0  0  0  0  0  0  0  0  0  0  0  0
   -2.6244   -2.2100    2.5590 H   0  0  0  0  0  0  0  0  0  0  0  0
   -0.9781   -1.8017    0.9243 H   0  0  0  0  0  0  0  0  0  0  0  0
    2.6024    1.4953   -2.3813 H   0  0  0  0  0  0  0  0  0  0  0  0
    1.5540    0.1621   -2.9708 H   0  0  0  0  0  0  0  0  0  0  0  0
    2.8685   -0.8497   -1.2890 H   0  0  0  0  0  0  0  0  0  0  0  0
    1.1755    1.4017    1.2505 H   0  0  0  0  0  0  0  0  0  0  0  0
    2.4309    2.7211    2.8779 H   0  0  0  0  0  0  0  0  0  0  0  0
    6.8346    3.5529    2.1223 H   0  0  0  0  0  0  0  0  0  0  0  0
    8.7760    1.2042    4.1198 H   0  0  0  0  0  0  0  0  0  0  0  0
    8.5613    2.0952    1.1900 H   0  0  0  0  0  0  0  0  0  0  0  0
   10.0162    1.3871    1.9679 H   0  0  0  0  0  0  0  0  0  0  0  0
    8.9066   -0.4937    2.3102 H   0  0  0  0  0  0  0  0  0  0  0  0
   10.0724    3.0777    4.2598 H   0  0  0  0  0  0  0  0  0  0  0  0
   10.0073    4.7748    2.8827 H   0  0  0  0  0  0  0  0  0  0  0  0
    8.6400    5.0799    4.9017 H   0  0  0  0  0  0  0  0  0  0  0  0
    7.7151    2.5801    5.9262 H   0  0  0  0  0  0  0  0  0  0  0  0
    6.0249    4.0855    5.0331 H   0  0  0  0  0  0  0  0  0  0  0  0
    6.4744    6.1402    4.4284 H   0  0  0  0  0  0  0  0  0  0  0  0
    6.1105    1.6568    0.9068 H   0  0  0  0  0  0  0  0  0  0  0  0
    4.8681    0.3337   -0.7185 H   0  0  0  0  0  0  0  0  0  0  0  0
   -3.1070    3.0813   -1.5461 H   0  0  0  0  0  0  0  0  0  0  0  0
   -3.8268    1.2547   -0.1030 H   0  0  0  0  0  0  0  0  0  0  0  0
   -4.4624   -3.2406    3.5093 H   0  0  0  0  0  0  0  0  0  0  0  0
   -4.6097   -1.0851    3.9352 H   0  0  0  0  0  0  0  0  0  0  0  0
   -6.8472   -2.8210    2.1133 H   0  0  0  0  0  0  0  0  0  0  0  0
   -6.3019   -4.7612    2.9636 H   0  0  0  0  0  0  0  0  0  0  0  0
   -5.7141   -1.9052    0.1374 H   0  0  0  0  0  0  0  0  0  0  0  0
   -7.4513   -3.1603   -0.3209 H   0  0  0  0  0  0  0  0  0  0  0  0
   -6.1692   -3.5294   -4.3835 H   0  0  0  0  0  0  0  0  0  0  0  0
   -4.7992   -5.2562   -4.6232 H   0  0  0  0  0  0  0  0  0  0  0  0
   -4.2775   -2.2131   -6.4031 H   0  0  0  0  0  0  0  0  0  0  0  0
   -6.0602   -2.2536   -7.7167 H   0  0  0  0  0  0  0  0  0  0  0  0
   -6.8921   -0.9555   -5.4030 H   0  0  0  0  0  0  0  0  0  0  0  0
   -4.3379    0.0905   -6.1654 H   0  0  0  0  0  0  0  0  0  0  0  0
  1  2  1  0
  2  3  1  0
  3  4  1  0
  4  5  1  0
  5  6  1  0
  6  7  1  0
  7  8  1  0
  8  9  1  0
  9 10  1  0
 10 11  1  0
 11 12  2  0
 12 13  1  0
 13 14  2  0
 14 15  1  0
 15 16  2  0
 15 17  1  0
 17 18  1  0
 18 19  1  0
 18 20  1  0
 20 21  2  0
 21 22  1  0
 22 23  2  0
 23 24  1  0
 24 25  1  0
 25 26  1  0
 26 27  1  0
 27 28  1  0
 28 29  1  0
 27 30  1  0
 30 31  1  0
 30 32  1  0
 32 33  1  0
 32 34  1  0
 34 35  1  0
 23 36  1  0
 36 37  2  0
 14 38  1  0
 38 39  1  0
 38 40  2  0
  9 41  1  0
 41 42  1  0
 41 43  1  0
 43 44  1  0
 43 45  1  0
 45 46  1  0
  4 47  1  0
 47 48  1  0
 47 49  1  0
 49 50  1  0
 49 51  1  0
 51 52  1  0
 51  2  1  0
 45  7  1  0
 40 11  1  0
 19 13  1  0
 37 20  1  0
 34 25  1  0
  1 53  1  0
  1 54  1  0
  1 55  1  0
  2 56  1  0
  4 57  1  0
  6 58  1  0
  6 59  1  0
  7 60  1  0
  9 61  1  0
 12 62  1  0
 17 63  1  0
 17 64  1  0
 18 65  1  0
 21 66  1  0
 22 67  1  0
 25 68  1  0
 27 69  1  0
 28 70  1  0
 28 71  1  0
 29 72  1  0
 30 73  1  0
 31 74  1  0
 32 75  1  0
 33 76  1  0
 34 77  1  0
 35 78  1  0
 36 79  1  0
 37 80  1  0
 39 81  1  0
 40 82  1  0
 41 83  1  0
 42 84  1  0
 43 85  1  0
 44 86  1  0
 45 87  1  0
 46 88  1  0
 47 89  1  0
 48 90  1  0
 49 91  1  0
 50 92  1  0
 51 93  1  0
 52 94  1  0
M  END
>  <LIG_ID>  (119) 
118

>  <_smiles>  (119) 
CC1OC(OCC2OC(OC3=CC4=C(C(=O)CC(O4)C4=CC=C(OC5OC(CO)C(O)C(O)C5O)C=C4)C(O)=C3)C(O)C(O)C2O)C(O)C(O)C1O

>  <_name>  (119) 
Narirutin 4'-O-glucoside

>  <_molecular_weight>  (119) 
742.675

>  <_formula>  (119) 
C33H42O19

>  <_logP>  (119) 
-3.692099999999997

>  <_molecular_wt_calculated>  (119) 
742.6800000000019

>  <_havy_atom_count>  (119) 
52

>  <_hydrogen_acceptors>  (119) 
19

>  <_hydrogen_donors>  (119) 
11

>  <_rotatable_bonds>  (119) 
21

>  <_amide_bonds>  (119) 
0

>  <_ring_count>  (119) 
6

$$$$
Naringin 4'-O-glucoside
     RDKit          3D

 94 99  0  0  0  0  0  0  0  0999 V2000
   -3.3614    3.9392   -3.0367 C   0  0  0  0  0  0  0  0  0  0  0  0
   -4.4279    3.2435   -2.1893 C   0  0  2  0  0  0  0  0  0  0  0  0
   -4.8527    2.0802   -2.8901 O   0  0  0  0  0  0  0  0  0  0  0  0
   -5.9557    1.4485   -2.2556 C   0  0  1  0  0  0  0  0  0  0  0  0
   -5.6600    1.1345   -0.9005 O   0  0  0  0  0  0  0  0  0  0  0  0
   -4.7851    0.0201   -0.8038 C   0  0  2  0  0  0  0  0  0  0  0  0
   -5.6052   -1.2933   -0.6853 C   0  0  1  0  0  0  0  0  0  0  0  0
   -5.0699   -2.3010   -1.5078 O   0  0  0  0  0  0  0  0  0  0  0  0
   -5.7191   -1.7888    0.7734 C   0  0  2  0  0  0  0  0  0  0  0  0
   -6.8817   -2.5653    0.9128 O   0  0  0  0  0  0  0  0  0  0  0  0
   -5.7679   -0.5711    1.7327 C   0  0  1  0  0  0  0  0  0  0  0  0
   -5.9269   -1.0164    3.1976 C   0  0  0  0  0  0  0  0  0  0  0  0
   -7.1870   -1.5887    3.4257 O   0  0  0  0  0  0  0  0  0  0  0  0
   -4.6177    0.2698    1.6624 O   0  0  0  0  0  0  0  0  0  0  0  0
   -3.8899    0.2229    0.4414 C   0  0  1  0  0  0  0  0  0  0  0  0
   -2.8899   -0.7960    0.5335 O   0  0  0  0  0  0  0  0  0  0  0  0
   -1.7604   -0.9216   -0.2930 C   0  0  0  0  0  0  0  0  0  0  0  0
   -1.3836    0.0588   -1.2312 C   0  0  0  0  0  0  0  0  0  0  0  0
   -0.2514   -0.1239   -2.0387 C   0  0  0  0  0  0  0  0  0  0  0  0
    0.0931    0.8517   -2.9742 O   0  0  0  0  0  0  0  0  0  0  0  0
    0.5230   -1.2943   -1.9045 C   0  0  0  0  0  0  0  0  0  0  0  0
    1.7116   -1.5669   -2.7418 C   0  0  0  0  0  0  0  0  0  0  0  0
    2.2188   -0.6713   -3.4691 O   0  0  0  0  0  0  0  0  0  0  0  0
    2.2844   -2.9529   -2.7706 C   0  0  0  0  0  0  0  0  0  0  0  0
    2.2157   -3.6132   -1.3811 C   0  0  2  0  0  0  0  0  0  0  0  0
    0.9367   -3.4113   -0.7650 O   0  0  0  0  0  0  0  0  0  0  0  0
    0.1582   -2.2594   -0.9494 C   0  0  0  0  0  0  0  0  0  0  0  0
   -0.9797   -2.0731   -0.1614 C   0  0  0  0  0  0  0  0  0  0  0  0
    3.3467   -3.1404   -0.4856 C   0  0  0  0  0  0  0  0  0  0  0  0
    4.5646   -3.8416   -0.4882 C   0  0  0  0  0  0  0  0  0  0  0  0
    5.6376   -3.4066    0.2936 C   0  0  0  0  0  0  0  0  0  0  0  0
    5.5237   -2.2586    1.0833 C   0  0  0  0  0  0  0  0  0  0  0  0
    6.6371   -1.8615    1.8403 O   0  0  0  0  0  0  0  0  0  0  0  0
    6.6932   -0.7057    2.6777 C   0  0  2  0  0  0  0  0  0  0  0  0
    6.5536    0.4840    1.9004 O   0  0  0  0  0  0  0  0  0  0  0  0
    7.7759    1.0470    1.4397 C   0  0  2  0  0  0  0  0  0  0  0  0
    8.4273    0.2028    0.3231 C   0  0  0  0  0  0  0  0  0  0  0  0
    7.5839    0.1339   -0.7952 O   0  0  0  0  0  0  0  0  0  0  0  0
    8.7593    1.3949    2.6016 C   0  0  1  0  0  0  0  0  0  0  0  0
    8.7970    2.7825    2.8304 O   0  0  0  0  0  0  0  0  0  0  0  0
    8.4106    0.6525    3.9060 C   0  0  2  0  0  0  0  0  0  0  0  0
    9.5347    0.6035    4.7467 O   0  0  0  0  0  0  0  0  0  0  0  0
    7.9605   -0.7659    3.5623 C   0  0  1  0  0  0  0  0  0  0  0  0
    7.6746   -1.4843    4.7364 O   0  0  0  0  0  0  0  0  0  0  0  0
    4.3115   -1.5444    1.0819 C   0  0  0  0  0  0  0  0  0  0  0  0
    3.2371   -1.9781    0.3000 C   0  0  0  0  0  0  0  0  0  0  0  0
   -7.2235    2.3464   -2.3238 C   0  0  2  0  0  0  0  0  0  0  0  0
   -8.1608    1.8543   -3.2517 O   0  0  0  0  0  0  0  0  0  0  0  0
   -6.8746    3.8216   -2.6234 C   0  0  2  0  0  0  0  0  0  0  0  0
   -6.6766    4.0063   -4.0034 O   0  0  0  0  0  0  0  0  0  0  0  0
   -5.5988    4.2212   -1.8576 C   0  0  1  0  0  0  0  0  0  0  0  0
   -5.8462    4.1915   -0.4737 O   0  0  0  0  0  0  0  0  0  0  0  0
   -2.9418    4.8110   -2.4907 H   0  0  0  0  0  0  0  0  0  0  0  0
   -3.7962    4.2847   -3.9989 H   0  0  0  0  0  0  0  0  0  0  0  0
   -2.5333    3.2319   -3.2544 H   0  0  0  0  0  0  0  0  0  0  0  0
   -3.9173    2.9385   -1.2490 H   0  0  0  0  0  0  0  0  0  0  0  0
   -6.1782    0.5125   -2.8195 H   0  0  0  0  0  0  0  0  0  0  0  0
   -4.1121   -0.0475   -1.6906 H   0  0  0  0  0  0  0  0  0  0  0  0
   -6.6353   -1.0905   -1.0541 H   0  0  0  0  0  0  0  0  0  0  0  0
   -4.1385   -2.4711   -1.2097 H   0  0  0  0  0  0  0  0  0  0  0  0
   -4.8294   -2.4054    1.0430 H   0  0  0  0  0  0  0  0  0  0  0  0
   -6.6909   -3.4442    0.4921 H   0  0  0  0  0  0  0  0  0  0  0  0
   -6.6549    0.0486    1.4707 H   0  0  0  0  0  0  0  0  0  0  0  0
   -5.1414   -1.7598    3.4518 H   0  0  0  0  0  0  0  0  0  0  0  0
   -5.7853   -0.1428    3.8746 H   0  0  0  0  0  0  0  0  0  0  0  0
   -7.8396   -0.8408    3.4475 H   0  0  0  0  0  0  0  0  0  0  0  0
   -3.3839    1.2062    0.3529 H   0  0  0  0  0  0  0  0  0  0  0  0
   -1.9592    0.9651   -1.3506 H   0  0  0  0  0  0  0  0  0  0  0  0
   -0.4514    1.6988   -3.0862 H   0  0  0  0  0  0  0  0  0  0  0  0
    1.6869   -3.5562   -3.4874 H   0  0  0  0  0  0  0  0  0  0  0  0
    3.3341   -2.9325   -3.1383 H   0  0  0  0  0  0  0  0  0  0  0  0
    2.3296   -4.7098   -1.5276 H   0  0  0  0  0  0  0  0  0  0  0  0
   -1.2551   -2.8265    0.5661 H   0  0  0  0  0  0  0  0  0  0  0  0
    4.6865   -4.7262   -1.1011 H   0  0  0  0  0  0  0  0  0  0  0  0
    6.5676   -3.9608    0.2794 H   0  0  0  0  0  0  0  0  0  0  0  0
    5.8204   -0.7366    3.3670 H   0  0  0  0  0  0  0  0  0  0  0  0
    7.5050    2.0067    0.9460 H   0  0  0  0  0  0  0  0  0  0  0  0
    8.6982   -0.8154    0.6770 H   0  0  0  0  0  0  0  0  0  0  0  0
    9.3705    0.6942    0.0021 H   0  0  0  0  0  0  0  0  0  0  0  0
    6.9293   -0.5889   -0.6188 H   0  0  0  0  0  0  0  0  0  0  0  0
    9.7877    1.0894    2.3056 H   0  0  0  0  0  0  0  0  0  0  0  0
    7.8781    3.0710    3.0735 H   0  0  0  0  0  0  0  0  0  0  0  0
    7.5702    1.1665    4.4316 H   0  0  0  0  0  0  0  0  0  0  0  0
    9.6305    1.5066    5.1478 H   0  0  0  0  0  0  0  0  0  0  0  0
    8.7765   -1.2796    2.9996 H   0  0  0  0  0  0  0  0  0  0  0  0
    8.5390   -1.8232    5.0884 H   0  0  0  0  0  0  0  0  0  0  0  0
    4.1879   -0.6489    1.6742 H   0  0  0  0  0  0  0  0  0  0  0  0
    2.3271   -1.3973    0.3146 H   0  0  0  0  0  0  0  0  0  0  0  0
   -7.7191    2.3187   -1.3278 H   0  0  0  0  0  0  0  0  0  0  0  0
   -7.6990    1.7446   -4.1238 H   0  0  0  0  0  0  0  0  0  0  0  0
   -7.7270    4.4583   -2.2878 H   0  0  0  0  0  0  0  0  0  0  0  0
   -6.7255    4.9834   -4.1729 H   0  0  0  0  0  0  0  0  0  0  0  0
   -5.3260    5.2648   -2.1452 H   0  0  0  0  0  0  0  0  0  0  0  0
   -6.4015    4.9868   -0.2608 H   0  0  0  0  0  0  0  0  0  0  0  0
  1  2  1  0
  2  3  1  0
  3  4  1  0
  4  5  1  0
  5  6  1  0
  6  7  1  0
  7  8  1  0
  7  9  1  0
  9 10  1  0
  9 11  1  0
 11 12  1  0
 12 13  1  0
 11 14  1  0
 14 15  1  0
 15 16  1  0
 16 17  1  0
 17 18  2  0
 18 19  1  0
 19 20  1  0
 19 21  2  0
 21 22  1  0
 22 23  2  0
 22 24  1  0
 24 25  1  0
 25 26  1  0
 26 27  1  0
 27 28  2  0
 25 29  1  0
 29 30  2  0
 30 31  1  0
 31 32  2  0
 32 33  1  0
 33 34  1  0
 34 35  1  0
 35 36  1  0
 36 37  1  0
 37 38  1  0
 36 39  1  0
 39 40  1  0
 39 41  1  0
 41 42  1  0
 41 43  1  0
 43 44  1  0
 32 45  1  0
 45 46  2  0
  4 47  1  0
 47 48  1  0
 47 49  1  0
 49 50  1  0
 49 51  1  0
 51 52  1  0
 51  2  1  0
 15  6  1  0
 28 17  1  0
 46 29  1  0
 27 21  1  0
 43 34  1  0
  1 53  1  0
  1 54  1  0
  1 55  1  0
  2 56  1  1
  4 57  1  6
  6 58  1  6
  7 59  1  6
  8 60  1  0
  9 61  1  1
 10 62  1  0
 11 63  1  6
 12 64  1  0
 12 65  1  0
 13 66  1  0
 15 67  1  6
 18 68  1  0
 20 69  1  0
 24 70  1  0
 24 71  1  0
 25 72  1  6
 28 73  1  0
 30 74  1  0
 31 75  1  0
 34 76  1  1
 36 77  1  6
 37 78  1  0
 37 79  1  0
 38 80  1  0
 39 81  1  6
 40 82  1  0
 41 83  1  1
 42 84  1  0
 43 85  1  6
 44 86  1  0
 45 87  1  0
 46 88  1  0
 47 89  1  1
 48 90  1  0
 49 91  1  1
 50 92  1  0
 51 93  1  6
 52 94  1  0
M  END
>  <LIG_ID>  (120) 
119

>  <_smiles>  (120) 
C[C@@H]1O[C@@H](O[C@@H]2[C@@H](O)[C@H](O)[C@@H](CO)O[C@H]2OC2=CC(O)=C3C(=O)C[C@H](OC3=C2)C2=CC=C(O[C@@H]3O[C@H](CO)[C@@H](O)[C@H](O)[C@H]3O)C=C2)[C@H](O)[C@H](O)[C@H]1O

>  <_name>  (120) 
Naringin 4'-O-glucoside

>  <_molecular_weight>  (120) 
434.393

>  <_formula>  (120) 
C21H22O10

>  <_logP>  (120) 
-3.692099999999995

>  <_molecular_wt_calculated>  (120) 
742.6800000000019

>  <_havy_atom_count>  (120) 
52

>  <_hydrogen_acceptors>  (120) 
19

>  <_hydrogen_donors>  (120) 
11

>  <_rotatable_bonds>  (120) 
21

>  <_amide_bonds>  (120) 
0

>  <_ring_count>  (120) 
6

$$$$
Naringin 6'-malonate
     RDKit          3D

102107  0  0  0  0  0  0  0  0999 V2000
   -4.1467   -3.5169    2.8009 C   0  0  0  0  0  0  0  0  0  0  0  0
   -4.9990   -3.8095    1.5607 C   0  0  2  0  0  0  0  0  0  0  0  0
   -4.8503   -2.7663    0.6019 O   0  0  0  0  0  0  0  0  0  0  0  0
   -5.8043   -1.7335    0.7875 C   0  0  1  0  0  0  0  0  0  0  0  0
   -5.4673   -0.6319   -0.0335 O   0  0  0  0  0  0  0  0  0  0  0  0
   -4.3264    0.0529    0.4651 C   0  0  2  0  0  0  0  0  0  0  0  0
   -4.7658    1.3462    1.1731 C   0  0  1  0  0  0  0  0  0  0  0  0
   -3.6979    1.8968    1.9013 O   0  0  0  0  0  0  0  0  0  0  0  0
   -5.2913    2.3716    0.1588 C   0  0  2  0  0  0  0  0  0  0  0  0
   -6.5557    1.9551   -0.2939 O   0  0  0  0  0  0  0  0  0  0  0  0
   -4.3352    2.5323   -1.0528 C   0  0  1  0  0  0  0  0  0  0  0  0
   -3.1220    3.4575   -0.8052 C   0  0  0  0  0  0  0  0  0  0  0  0
   -3.5366    4.8228   -0.7521 O   0  0  0  0  0  0  0  0  0  0  0  0
   -3.7700    5.5222    0.4375 C   0  0  0  0  0  0  0  0  0  0  0  0
   -3.4753    5.0178    1.5555 O   0  0  0  0  0  0  0  0  0  0  0  0
   -4.4272    6.8608    0.3798 C   0  0  0  0  0  0  0  0  0  0  0  0
   -5.9112    6.6891    0.3789 C   0  0  0  0  0  0  0  0  0  0  0  0
   -6.5689    6.3577   -0.8016 O   0  0  0  0  0  0  0  0  0  0  0  0
   -6.5614    6.8017    1.4524 O   0  0  0  0  0  0  0  0  0  0  0  0
   -3.9606    1.2884   -1.6345 O   0  0  0  0  0  0  0  0  0  0  0  0
   -3.3883    0.3648   -0.7191 C   0  0  1  0  0  0  0  0  0  0  0  0
   -2.1051    0.8184   -0.2774 O   0  0  0  0  0  0  0  0  0  0  0  0
   -1.1320    0.0387    0.3701 C   0  0  0  0  0  0  0  0  0  0  0  0
   -1.2277   -1.3611    0.4902 C   0  0  0  0  0  0  0  0  0  0  0  0
   -0.2338   -2.0899    1.1592 C   0  0  0  0  0  0  0  0  0  0  0  0
   -0.3580   -3.4741    1.2806 O   0  0  0  0  0  0  0  0  0  0  0  0
    0.8765   -1.4176    1.7093 C   0  0  0  0  0  0  0  0  0  0  0  0
    1.9467   -2.1172    2.4532 C   0  0  0  0  0  0  0  0  0  0  0  0
    2.0299   -3.3748    2.4511 O   0  0  0  0  0  0  0  0  0  0  0  0
    2.9118   -1.3157    3.2753 C   0  0  0  0  0  0  0  0  0  0  0  0
    3.2654    0.0138    2.5832 C   0  0  2  0  0  0  0  0  0  0  0  0
    2.0981    0.6644    2.0632 O   0  0  0  0  0  0  0  0  0  0  0  0
    0.9821   -0.0228    1.5644 C   0  0  0  0  0  0  0  0  0  0  0  0
   -0.0209    0.6935    0.9075 C   0  0  0  0  0  0  0  0  0  0  0  0
    4.3185   -0.1820    1.5075 C   0  0  0  0  0  0  0  0  0  0  0  0
    5.6772   -0.0573    1.8435 C   0  0  0  0  0  0  0  0  0  0  0  0
    6.6697   -0.2659    0.8826 C   0  0  0  0  0  0  0  0  0  0  0  0
    6.3303   -0.6131   -0.4284 C   0  0  0  0  0  0  0  0  0  0  0  0
    7.3714   -0.8090   -1.3503 O   0  0  0  0  0  0  0  0  0  0  0  0
    7.2157   -1.1097   -2.7422 C   0  0  2  0  0  0  0  0  0  0  0  0
    8.4318   -1.6107   -3.2729 O   0  0  0  0  0  0  0  0  0  0  0  0
    9.5253   -0.6975   -3.1788 C   0  0  2  0  0  0  0  0  0  0  0  0
   10.4096   -1.0297   -1.9647 C   0  0  0  0  0  0  0  0  0  0  0  0
   10.7790   -2.3822   -1.9806 O   0  0  0  0  0  0  0  0  0  0  0  0
    9.1267    0.8025   -3.2048 C   0  0  1  0  0  0  0  0  0  0  0  0
   10.1951    1.5596   -3.7160 O   0  0  0  0  0  0  0  0  0  0  0  0
    7.8868    0.9736   -4.0886 C   0  0  2  0  0  0  0  0  0  0  0  0
    7.5208    2.3291   -4.1285 O   0  0  0  0  0  0  0  0  0  0  0  0
    6.7160    0.1235   -3.5405 C   0  0  1  0  0  0  0  0  0  0  0  0
    5.9126   -0.3149   -4.6065 O   0  0  0  0  0  0  0  0  0  0  0  0
    4.9722   -0.7580   -0.7676 C   0  0  0  0  0  0  0  0  0  0  0  0
    3.9780   -0.5489    0.1924 C   0  0  0  0  0  0  0  0  0  0  0  0
   -7.2072   -2.2443    0.3862 C   0  0  2  0  0  0  0  0  0  0  0  0
   -8.2039   -1.4336    0.9606 O   0  0  0  0  0  0  0  0  0  0  0  0
   -7.3936   -3.7427    0.7551 C   0  0  2  0  0  0  0  0  0  0  0  0
   -8.7313   -4.0226    1.0806 O   0  0  0  0  0  0  0  0  0  0  0  0
   -6.4815   -4.1270    1.9283 C   0  0  1  0  0  0  0  0  0  0  0  0
   -6.6321   -5.4956    2.2069 O   0  0  0  0  0  0  0  0  0  0  0  0
   -4.5420   -2.6441    3.3608 H   0  0  0  0  0  0  0  0  0  0  0  0
   -4.1356   -4.3986    3.4757 H   0  0  0  0  0  0  0  0  0  0  0  0
   -3.1023   -3.2961    2.4954 H   0  0  0  0  0  0  0  0  0  0  0  0
   -4.5714   -4.7220    1.0896 H   0  0  0  0  0  0  0  0  0  0  0  0
   -5.8355   -1.4084    1.8566 H   0  0  0  0  0  0  0  0  0  0  0  0
   -3.7498   -0.5566    1.2009 H   0  0  0  0  0  0  0  0  0  0  0  0
   -5.5935    1.1082    1.8825 H   0  0  0  0  0  0  0  0  0  0  0  0
   -3.5744    1.3306    2.7076 H   0  0  0  0  0  0  0  0  0  0  0  0
   -5.4086    3.3462    0.6843 H   0  0  0  0  0  0  0  0  0  0  0  0
   -7.0124    2.7574   -0.6600 H   0  0  0  0  0  0  0  0  0  0  0  0
   -4.9253    3.0551   -1.8379 H   0  0  0  0  0  0  0  0  0  0  0  0
   -2.5535    3.1869    0.1061 H   0  0  0  0  0  0  0  0  0  0  0  0
   -2.4255    3.3523   -1.6639 H   0  0  0  0  0  0  0  0  0  0  0  0
   -4.1125    7.4784    1.2491 H   0  0  0  0  0  0  0  0  0  0  0  0
   -4.1160    7.3874   -0.5473 H   0  0  0  0  0  0  0  0  0  0  0  0
   -7.5718    6.2158   -0.8152 H   0  0  0  0  0  0  0  0  0  0  0  0
   -3.2422   -0.5746   -1.2928 H   0  0  0  0  0  0  0  0  0  0  0  0
   -2.0680   -1.8982    0.0754 H   0  0  0  0  0  0  0  0  0  0  0  0
   -1.1478   -3.9749    0.8902 H   0  0  0  0  0  0  0  0  0  0  0  0
    3.8339   -1.9045    3.4766 H   0  0  0  0  0  0  0  0  0  0  0  0
    2.4304   -1.0973    4.2528 H   0  0  0  0  0  0  0  0  0  0  0  0
    3.6879    0.6899    3.3587 H   0  0  0  0  0  0  0  0  0  0  0  0
    0.0669    1.7684    0.8084 H   0  0  0  0  0  0  0  0  0  0  0  0
    5.9709    0.2004    2.8536 H   0  0  0  0  0  0  0  0  0  0  0  0
    7.7112   -0.1592    1.1590 H   0  0  0  0  0  0  0  0  0  0  0  0
    6.4720   -1.9301   -2.8361 H   0  0  0  0  0  0  0  0  0  0  0  0
   10.1485   -0.8781   -4.0831 H   0  0  0  0  0  0  0  0  0  0  0  0
    9.8648   -0.8252   -1.0204 H   0  0  0  0  0  0  0  0  0  0  0  0
   11.3187   -0.3855   -1.9675 H   0  0  0  0  0  0  0  0  0  0  0  0
   11.4832   -2.4765   -2.6740 H   0  0  0  0  0  0  0  0  0  0  0  0
    8.8836    1.1451   -2.1699 H   0  0  0  0  0  0  0  0  0  0  0  0
   10.0683    2.4919   -3.3992 H   0  0  0  0  0  0  0  0  0  0  0  0
    8.1527    0.6274   -5.1168 H   0  0  0  0  0  0  0  0  0  0  0  0
    6.9252    2.4421   -4.9146 H   0  0  0  0  0  0  0  0  0  0  0  0
    6.1017    0.7541   -2.8562 H   0  0  0  0  0  0  0  0  0  0  0  0
    5.3655    0.4619   -4.8946 H   0  0  0  0  0  0  0  0  0  0  0  0
    4.6694   -1.0314   -1.7683 H   0  0  0  0  0  0  0  0  0  0  0  0
    2.9474   -0.6769   -0.1026 H   0  0  0  0  0  0  0  0  0  0  0  0
   -7.3093   -2.1635   -0.7187 H   0  0  0  0  0  0  0  0  0  0  0  0
   -8.1588   -1.5531    1.9453 H   0  0  0  0  0  0  0  0  0  0  0  0
   -7.0926   -4.3666   -0.1207 H   0  0  0  0  0  0  0  0  0  0  0  0
   -9.2436   -3.9853    0.2308 H   0  0  0  0  0  0  0  0  0  0  0  0
   -6.7967   -3.5285    2.8166 H   0  0  0  0  0  0  0  0  0  0  0  0
   -6.2720   -5.6432    3.1200 H   0  0  0  0  0  0  0  0  0  0  0  0
  1  2  1  0
  2  3  1  0
  3  4  1  0
  4  5  1  0
  5  6  1  0
  6  7  1  0
  7  8  1  0
  7  9  1  0
  9 10  1  0
  9 11  1  0
 11 12  1  0
 12 13  1  0
 13 14  1  0
 14 15  2  0
 14 16  1  0
 16 17  1  0
 17 18  1  0
 17 19  2  0
 11 20  1  0
 20 21  1  0
 21 22  1  0
 22 23  1  0
 23 24  2  0
 24 25  1  0
 25 26  1  0
 25 27  2  0
 27 28  1  0
 28 29  2  0
 28 30  1  0
 30 31  1  0
 31 32  1  0
 32 33  1  0
 33 34  2  0
 31 35  1  0
 35 36  2  0
 36 37  1  0
 37 38  2  0
 38 39  1  0
 39 40  1  0
 40 41  1  0
 41 42  1  0
 42 43  1  0
 43 44  1  0
 42 45  1  0
 45 46  1  0
 45 47  1  0
 47 48  1  0
 47 49  1  0
 49 50  1  0
 38 51  1  0
 51 52  2  0
  4 53  1  0
 53 54  1  0
 53 55  1  0
 55 56  1  0
 55 57  1  0
 57 58  1  0
 57  2  1  0
 21  6  1  0
 34 23  1  0
 52 35  1  0
 33 27  1  0
 49 40  1  0
  1 59  1  0
  1 60  1  0
  1 61  1  0
  2 62  1  6
  4 63  1  1
  6 64  1  1
  7 65  1  1
  8 66  1  0
  9 67  1  1
 10 68  1  0
 11 69  1  6
 12 70  1  0
 12 71  1  0
 16 72  1  0
 16 73  1  0
 18 74  1  0
 21 75  1  6
 24 76  1  0
 26 77  1  0
 30 78  1  0
 30 79  1  0
 31 80  1  1
 34 81  1  0
 36 82  1  0
 37 83  1  0
 40 84  1  1
 42 85  1  6
 43 86  1  0
 43 87  1  0
 44 88  1  0
 45 89  1  1
 46 90  1  0
 47 91  1  6
 48 92  1  0
 49 93  1  1
 50 94  1  0
 51 95  1  0
 52 96  1  0
 53 97  1  6
 54 98  1  0
 55 99  1  6
 56100  1  0
 57101  1  1
 58102  1  0
M  END
>  <LIG_ID>  (121) 
120

>  <_smiles>  (121) 
C[C@@H]1O[C@@H](O[C@@H]2[C@@H](O)[C@H](O)[C@@H](COC(=O)CC(O)=O)O[C@H]2OC2=CC(O)=C3C(=O)C[C@H](OC3=C2)C2=CC=C(O[C@@H]3O[C@H](CO)[C@@H](O)[C@H](O)[C@H]3O)C=C2)[C@H](O)[C@H](O)[C@H]1O

>  <_name>  (121) 
Naringin 6'-malonate

>  <_molecular_weight>  (121) 
666.581

>  <_formula>  (121) 
C30H34O17

>  <_logP>  (121) 
-3.6664999999999934

>  <_molecular_wt_calculated>  (121) 
828.7260000000019

>  <_havy_atom_count>  (121) 
58

>  <_hydrogen_acceptors>  (121) 
22

>  <_hydrogen_donors>  (121) 
11

>  <_rotatable_bonds>  (121) 
23

>  <_amide_bonds>  (121) 
0

>  <_ring_count>  (121) 
6

$$$$
Naringenin 7-O-glucoside
     RDKit          3D

 53 56  0  0  0  0  0  0  0  0999 V2000
   -3.9827   -0.9547    2.8108 O   0  0  0  0  0  0  0  0  0  0  0  0
   -3.3013   -0.5267    1.6633 C   0  0  0  0  0  0  0  0  0  0  0  0
   -3.5137    0.9871    1.4609 C   0  0  1  0  0  0  0  0  0  0  0  0
   -2.5377    1.5676    0.6013 O   0  0  0  0  0  0  0  0  0  0  0  0
   -2.7638    1.3388   -0.7842 C   0  0  1  0  0  0  0  0  0  0  0  0
   -2.5688   -0.0332   -1.1338 O   0  0  0  0  0  0  0  0  0  0  0  0
   -1.3515   -0.7264   -1.0392 C   0  0  0  0  0  0  0  0  0  0  0  0
   -1.3326   -2.0766   -1.3965 C   0  0  0  0  0  0  0  0  0  0  0  0
   -0.1536   -2.8282   -1.3326 C   0  0  0  0  0  0  0  0  0  0  0  0
   -0.2056   -4.1446   -1.7963 O   0  0  0  0  0  0  0  0  0  0  0  0
    1.0328   -2.2256   -0.8414 C   0  0  0  0  0  0  0  0  0  0  0  0
    2.3187   -2.9439   -0.6619 C   0  0  0  0  0  0  0  0  0  0  0  0
    2.3679   -4.1969   -0.5450 O   0  0  0  0  0  0  0  0  0  0  0  0
    3.5830   -2.1450   -0.5521 C   0  0  0  0  0  0  0  0  0  0  0  0
    3.3405   -0.9456    0.3748 C   0  0  2  0  0  0  0  0  0  0  0  0
    2.1747   -0.2233   -0.0322 O   0  0  0  0  0  0  0  0  0  0  0  0
    1.0125   -0.8592   -0.4907 C   0  0  0  0  0  0  0  0  0  0  0  0
   -0.1649   -0.1165   -0.6010 C   0  0  0  0  0  0  0  0  0  0  0  0
    4.5390   -0.0287    0.3863 C   0  0  0  0  0  0  0  0  0  0  0  0
    4.7665    0.8645   -0.6759 C   0  0  0  0  0  0  0  0  0  0  0  0
    5.8944    1.6905   -0.6752 C   0  0  0  0  0  0  0  0  0  0  0  0
    6.8133    1.6262    0.3807 C   0  0  0  0  0  0  0  0  0  0  0  0
    7.9405    2.4445    0.3923 O   0  0  0  0  0  0  0  0  0  0  0  0
    6.5995    0.7299    1.4325 C   0  0  0  0  0  0  0  0  0  0  0  0
    5.4724   -0.0975    1.4346 C   0  0  0  0  0  0  0  0  0  0  0  0
   -4.1489    1.8252   -1.2486 C   0  0  2  0  0  0  0  0  0  0  0  0
   -4.2207    3.2257   -1.1539 O   0  0  0  0  0  0  0  0  0  0  0  0
   -5.2632    1.1992   -0.4036 C   0  0  1  0  0  0  0  0  0  0  0  0
   -5.3958   -0.1613   -0.7275 O   0  0  0  0  0  0  0  0  0  0  0  0
   -4.9691    1.3788    1.0996 C   0  0  2  0  0  0  0  0  0  0  0  0
   -5.1778    2.7203    1.4651 O   0  0  0  0  0  0  0  0  0  0  0  0
   -3.7933   -1.9250    2.8992 H   0  0  0  0  0  0  0  0  0  0  0  0
   -2.2132   -0.7227    1.7924 H   0  0  0  0  0  0  0  0  0  0  0  0
   -3.6620   -1.1076    0.7907 H   0  0  0  0  0  0  0  0  0  0  0  0
   -3.3216    1.4317    2.4631 H   0  0  0  0  0  0  0  0  0  0  0  0
   -2.0161    1.9369   -1.3493 H   0  0  0  0  0  0  0  0  0  0  0  0
   -2.2427   -2.5427   -1.7539 H   0  0  0  0  0  0  0  0  0  0  0  0
    0.6096   -4.7096   -1.9841 H   0  0  0  0  0  0  0  0  0  0  0  0
    4.4050   -2.7745   -0.1455 H   0  0  0  0  0  0  0  0  0  0  0  0
    3.8705   -1.7968   -1.5680 H   0  0  0  0  0  0  0  0  0  0  0  0
    3.1558   -1.3316    1.4028 H   0  0  0  0  0  0  0  0  0  0  0  0
   -0.1444    0.9282   -0.3242 H   0  0  0  0  0  0  0  0  0  0  0  0
    4.0720    0.9193   -1.5051 H   0  0  0  0  0  0  0  0  0  0  0  0
    6.0551    2.3768   -1.4968 H   0  0  0  0  0  0  0  0  0  0  0  0
    8.1241    3.1034   -0.3553 H   0  0  0  0  0  0  0  0  0  0  0  0
    7.3095    0.6721    2.2477 H   0  0  0  0  0  0  0  0  0  0  0  0
    5.3290   -0.7918    2.2532 H   0  0  0  0  0  0  0  0  0  0  0  0
   -4.3041    1.5214   -2.3112 H   0  0  0  0  0  0  0  0  0  0  0  0
   -3.7185    3.5941   -1.9272 H   0  0  0  0  0  0  0  0  0  0  0  0
   -6.2189    1.7175   -0.6551 H   0  0  0  0  0  0  0  0  0  0  0  0
   -6.2710   -0.4599   -0.3660 H   0  0  0  0  0  0  0  0  0  0  0  0
   -5.6690    0.7382    1.6864 H   0  0  0  0  0  0  0  0  0  0  0  0
   -6.1600    2.8581    1.5158 H   0  0  0  0  0  0  0  0  0  0  0  0
  1  2  1  0
  2  3  1  0
  3  4  1  0
  4  5  1  0
  5  6  1  0
  6  7  1  0
  7  8  2  0
  8  9  1  0
  9 10  1  0
  9 11  2  0
 11 12  1  0
 12 13  2  0
 12 14  1  0
 14 15  1  0
 15 16  1  0
 16 17  1  0
 17 18  2  0
 15 19  1  0
 19 20  2  0
 20 21  1  0
 21 22  2  0
 22 23  1  0
 22 24  1  0
 24 25  2  0
  5 26  1  0
 26 27  1  0
 26 28  1  0
 28 29  1  0
 28 30  1  0
 30 31  1  0
 30  3  1  0
 18  7  1  0
 25 19  1  0
 17 11  1  0
  1 32  1  0
  2 33  1  0
  2 34  1  0
  3 35  1  1
  5 36  1  6
  8 37  1  0
 10 38  1  0
 14 39  1  0
 14 40  1  0
 15 41  1  1
 18 42  1  0
 20 43  1  0
 21 44  1  0
 23 45  1  0
 24 46  1  0
 25 47  1  0
 26 48  1  6
 27 49  1  0
 28 50  1  6
 29 51  1  0
 30 52  1  1
 31 53  1  0
M  END
>  <LIG_ID>  (122) 
121

>  <_smiles>  (122) 
OC[C@H]1O[C@@H](OC2=CC(O)=C3C(=O)C[C@H](OC3=C2)C2=CC=C(O)C=C2)[C@H](O)[C@@H](O)[C@@H]1O

>  <_name>  (122) 
Naringenin 7-O-glucoside

>  <_molecular_weight>  (122) 
434.393

>  <_formula>  (122) 
C21H22O10

>  <_logP>  (122) 
-0.017000000000000515

>  <_molecular_wt_calculated>  (122) 
434.3969999999998

>  <_havy_atom_count>  (122) 
31

>  <_hydrogen_acceptors>  (122) 
10

>  <_hydrogen_donors>  (122) 
6

>  <_rotatable_bonds>  (122) 
10

>  <_amide_bonds>  (122) 
0

>  <_ring_count>  (122) 
4

$$$$
Pinocembrin
     RDKit          3D

 31 33  0  0  0  0  0  0  0  0999 V2000
   -4.3567   -2.7358   -0.8515 O   0  0  0  0  0  0  0  0  0  0  0  0
   -3.5847   -1.6542   -0.4332 C   0  0  0  0  0  0  0  0  0  0  0  0
   -4.1750   -0.5684    0.2258 C   0  0  0  0  0  0  0  0  0  0  0  0
   -3.3929    0.5147    0.6543 C   0  0  0  0  0  0  0  0  0  0  0  0
   -3.9965    1.5786    1.3245 O   0  0  0  0  0  0  0  0  0  0  0  0
   -2.0025    0.5124    0.4110 C   0  0  0  0  0  0  0  0  0  0  0  0
   -1.1041    1.5964    0.8774 C   0  0  0  0  0  0  0  0  0  0  0  0
   -1.5656    2.6537    1.3848 O   0  0  0  0  0  0  0  0  0  0  0  0
    0.3839    1.4046    0.8028 C   0  0  0  0  0  0  0  0  0  0  0  0
    0.7498    0.6009   -0.4552 C   0  0  2  0  0  0  0  0  0  0  0  0
   -0.0489   -0.5819   -0.5468 O   0  0  0  0  0  0  0  0  0  0  0  0
   -1.4217   -0.5738   -0.2722 C   0  0  0  0  0  0  0  0  0  0  0  0
   -2.2094   -1.6549   -0.6765 C   0  0  0  0  0  0  0  0  0  0  0  0
    2.2145    0.2376   -0.4498 C   0  0  0  0  0  0  0  0  0  0  0  0
    3.1352    0.9987   -1.1911 C   0  0  0  0  0  0  0  0  0  0  0  0
    4.4971    0.6823   -1.1632 C   0  0  0  0  0  0  0  0  0  0  0  0
    4.9524   -0.3878   -0.3887 C   0  0  0  0  0  0  0  0  0  0  0  0
    4.0472   -1.1411    0.3633 C   0  0  0  0  0  0  0  0  0  0  0  0
    2.6846   -0.8287    0.3386 C   0  0  0  0  0  0  0  0  0  0  0  0
   -5.3569   -2.7663   -0.6912 H   0  0  0  0  0  0  0  0  0  0  0  0
   -5.2416   -0.5696    0.4125 H   0  0  0  0  0  0  0  0  0  0  0  0
   -4.9927    1.5944    1.5098 H   0  0  0  0  0  0  0  0  0  0  0  0
    0.7124    0.8612    1.7152 H   0  0  0  0  0  0  0  0  0  0  0  0
    0.8942    2.3924    0.7753 H   0  0  0  0  0  0  0  0  0  0  0  0
    0.5248    1.2294   -1.3465 H   0  0  0  0  0  0  0  0  0  0  0  0
   -1.7530   -2.4909   -1.1916 H   0  0  0  0  0  0  0  0  0  0  0  0
    2.8001    1.8370   -1.7892 H   0  0  0  0  0  0  0  0  0  0  0  0
    5.2002    1.2694   -1.7397 H   0  0  0  0  0  0  0  0  0  0  0  0
    6.0070   -0.6302   -0.3674 H   0  0  0  0  0  0  0  0  0  0  0  0
    4.4020   -1.9652    0.9686 H   0  0  0  0  0  0  0  0  0  0  0  0
    1.9969   -1.4151    0.9353 H   0  0  0  0  0  0  0  0  0  0  0  0
  1  2  1  0
  2  3  2  0
  3  4  1  0
  4  5  1  0
  4  6  2  0
  6  7  1  0
  7  8  2  0
  7  9  1  0
  9 10  1  0
 10 11  1  0
 11 12  1  0
 12 13  2  0
 10 14  1  0
 14 15  2  0
 15 16  1  0
 16 17  2  0
 17 18  1  0
 18 19  2  0
 13  2  1  0
 19 14  1  0
 12  6  1  0
  1 20  1  0
  3 21  1  0
  5 22  1  0
  9 23  1  0
  9 24  1  0
 10 25  1  6
 13 26  1  0
 15 27  1  0
 16 28  1  0
 17 29  1  0
 18 30  1  0
 19 31  1  0
M  END
>  <LIG_ID>  (123) 
122

>  <_smiles>  (123) 
OC1=CC(O)=C2C(=O)C[C@H](OC2=C1)C1=CC=CC=C1

>  <_name>  (123) 
Pinocembrin

>  <_molecular_weight>  (123) 
256.253

>  <_formula>  (123) 
C15H12O4

>  <_logP>  (123) 
2.8043000000000005

>  <_molecular_wt_calculated>  (123) 
256.25700000000006

>  <_havy_atom_count>  (123) 
19

>  <_hydrogen_acceptors>  (123) 
4

>  <_hydrogen_donors>  (123) 
2

>  <_rotatable_bonds>  (123) 
3

>  <_amide_bonds>  (123) 
0

>  <_ring_count>  (123) 
3

$$$$
8-Prenylnaringenin
     RDKit          3D

 45 47  0  0  0  0  0  0  0  0999 V2000
   -3.2202    2.3085    1.5966 C   0  0  0  0  0  0  0  0  0  0  0  0
   -3.2038    0.7983    1.6139 C   0  0  0  0  0  0  0  0  0  0  0  0
   -3.7787    0.0581    2.7935 C   0  0  0  0  0  0  0  0  0  0  0  0
   -2.6826    0.0860    0.5929 C   0  0  0  0  0  0  0  0  0  0  0  0
   -2.0814    0.7238   -0.6356 C   0  0  0  0  0  0  0  0  0  0  0  0
   -1.5725   -0.3305   -1.5961 C   0  0  0  0  0  0  0  0  0  0  0  0
   -0.2016   -0.6624   -1.6073 C   0  0  0  0  0  0  0  0  0  0  0  0
    0.6710   -0.0239   -0.7111 O   0  0  0  0  0  0  0  0  0  0  0  0
    2.0939   -0.0597   -0.8430 C   0  0  0  0  0  0  0  0  0  0  0  0
    2.5389   -1.4721   -1.2581 C   0  0  0  0  0  0  0  0  0  0  0  0
    1.7611   -1.8855   -2.4708 C   0  0  0  0  0  0  0  0  0  0  0  0
    2.3700   -2.3748   -3.4587 O   0  0  0  0  0  0  0  0  0  0  0  0
    0.2983   -1.6364   -2.4993 C   0  0  0  0  0  0  0  0  0  0  0  0
   -0.5997   -2.3165   -3.3569 C   0  0  0  0  0  0  0  0  0  0  0  0
   -0.2089   -3.3595   -4.2000 O   0  0  0  0  0  0  0  0  0  0  0  0
   -1.9532   -1.9743   -3.3464 C   0  0  0  0  0  0  0  0  0  0  0  0
   -2.4526   -1.0114   -2.4682 C   0  0  0  0  0  0  0  0  0  0  0  0
   -3.8293   -0.7726   -2.4784 O   0  0  0  0  0  0  0  0  0  0  0  0
    2.7218    0.4693    0.4349 C   0  0  0  0  0  0  0  0  0  0  0  0
    2.3645    1.7613    0.8622 C   0  0  0  0  0  0  0  0  0  0  0  0
    2.9087    2.3046    2.0291 C   0  0  0  0  0  0  0  0  0  0  0  0
    3.8231    1.5696    2.7867 C   0  0  0  0  0  0  0  0  0  0  0  0
    4.3575    2.1232    3.9479 O   0  0  0  0  0  0  0  0  0  0  0  0
    4.1941    0.2854    2.3711 C   0  0  0  0  0  0  0  0  0  0  0  0
    3.6518   -0.2629    1.2045 C   0  0  0  0  0  0  0  0  0  0  0  0
   -3.7999    2.6716    0.7222 H   0  0  0  0  0  0  0  0  0  0  0  0
   -3.6903    2.7212    2.5133 H   0  0  0  0  0  0  0  0  0  0  0  0
   -2.1822    2.6983    1.5398 H   0  0  0  0  0  0  0  0  0  0  0  0
   -2.9912   -0.5689    3.2629 H   0  0  0  0  0  0  0  0  0  0  0  0
   -4.1733    0.7540    3.5627 H   0  0  0  0  0  0  0  0  0  0  0  0
   -4.6107   -0.5961    2.4565 H   0  0  0  0  0  0  0  0  0  0  0  0
   -2.6941   -1.0005    0.6566 H   0  0  0  0  0  0  0  0  0  0  0  0
   -1.2585    1.4029   -0.3276 H   0  0  0  0  0  0  0  0  0  0  0  0
   -2.8293    1.3691   -1.1415 H   0  0  0  0  0  0  0  0  0  0  0  0
    2.3807    0.6354   -1.6641 H   0  0  0  0  0  0  0  0  0  0  0  0
    3.6285   -1.4788   -1.4811 H   0  0  0  0  0  0  0  0  0  0  0  0
    2.3223   -2.1987   -0.4455 H   0  0  0  0  0  0  0  0  0  0  0  0
    0.6841   -3.8268   -4.1445 H   0  0  0  0  0  0  0  0  0  0  0  0
   -2.6375   -2.4972   -4.0035 H   0  0  0  0  0  0  0  0  0  0  0  0
   -4.2948   -0.1512   -1.8306 H   0  0  0  0  0  0  0  0  0  0  0  0
    1.6584    2.3501    0.2889 H   0  0  0  0  0  0  0  0  0  0  0  0
    2.6193    3.2991    2.3442 H   0  0  0  0  0  0  0  0  0  0  0  0
    5.0232    1.6155    4.5188 H   0  0  0  0  0  0  0  0  0  0  0  0
    4.9048   -0.2896    2.9512 H   0  0  0  0  0  0  0  0  0  0  0  0
    3.9702   -1.2547    0.9179 H   0  0  0  0  0  0  0  0  0  0  0  0
  1  2  1  0
  2  3  1  0
  2  4  2  3
  4  5  1  0
  5  6  1  0
  6  7  2  0
  7  8  1  0
  8  9  1  0
  9 10  1  0
 10 11  1  0
 11 12  2  0
 11 13  1  0
 13 14  2  0
 14 15  1  0
 14 16  1  0
 16 17  2  0
 17 18  1  0
  9 19  1  0
 19 20  2  0
 20 21  1  0
 21 22  2  0
 22 23  1  0
 22 24  1  0
 24 25  2  0
 17  6  1  0
 25 19  1  0
 13  7  1  0
  1 26  1  0
  1 27  1  0
  1 28  1  0
  3 29  1  0
  3 30  1  0
  3 31  1  0
  4 32  1  0
  5 33  1  0
  5 34  1  0
  9 35  1  0
 10 36  1  0
 10 37  1  0
 15 38  1  0
 16 39  1  0
 18 40  1  0
 20 41  1  0
 21 42  1  0
 23 43  1  0
 24 44  1  0
 25 45  1  0
M  END
>  <LIG_ID>  (124) 
123

>  <_smiles>  (124) 
CC(C)=CCC1=C2OC(CC(=O)C2=C(O)C=C1O)C1=CC=C(O)C=C1

>  <_name>  (124) 
8-Prenylnaringenin

>  <_molecular_weight>  (124) 
340.37

>  <_formula>  (124) 
C20H20O5

>  <_logP>  (124) 
4.018600000000003

>  <_molecular_wt_calculated>  (124) 
340.3749999999997

>  <_havy_atom_count>  (124) 
25

>  <_hydrogen_acceptors>  (124) 
5

>  <_hydrogen_donors>  (124) 
3

>  <_rotatable_bonds>  (124) 
8

>  <_amide_bonds>  (124) 
0

>  <_ring_count>  (124) 
3

$$$$
6-Prenylnaringenin
     RDKit          3D

 45 47  0  0  0  0  0  0  0  0999 V2000
    6.5271   -0.8414    0.6095 C   0  0  0  0  0  0  0  0  0  0  0  0
    5.7012    0.2925    0.0500 C   0  0  0  0  0  0  0  0  0  0  0  0
    6.3802    1.4227   -0.6793 C   0  0  0  0  0  0  0  0  0  0  0  0
    4.3586    0.3222    0.1853 C   0  0  0  0  0  0  0  0  0  0  0  0
    3.5763   -0.7556    0.8960 C   0  0  0  0  0  0  0  0  0  0  0  0
    2.0897   -0.4704    0.8399 C   0  0  0  0  0  0  0  0  0  0  0  0
    1.4435    0.0847    1.9653 C   0  0  0  0  0  0  0  0  0  0  0  0
    2.1668    0.3780    3.1222 O   0  0  0  0  0  0  0  0  0  0  0  0
    0.0715    0.3496    1.9283 C   0  0  0  0  0  0  0  0  0  0  0  0
   -0.6697    0.0892    0.7789 C   0  0  0  0  0  0  0  0  0  0  0  0
   -2.0386    0.3836    0.7667 O   0  0  0  0  0  0  0  0  0  0  0  0
   -2.7903    0.4521   -0.4474 C   0  0  1  0  0  0  0  0  0  0  0  0
   -2.4049   -0.7020   -1.3844 C   0  0  0  0  0  0  0  0  0  0  0  0
   -0.9113   -0.7701   -1.5269 C   0  0  0  0  0  0  0  0  0  0  0  0
   -0.4155   -1.1376   -2.6257 O   0  0  0  0  0  0  0  0  0  0  0  0
   -0.0504   -0.4630   -0.3556 C   0  0  0  0  0  0  0  0  0  0  0  0
    1.3381   -0.7257   -0.3381 C   0  0  0  0  0  0  0  0  0  0  0  0
    1.9459   -1.2341   -1.4913 O   0  0  0  0  0  0  0  0  0  0  0  0
   -4.2684    0.4236   -0.1439 C   0  0  0  0  0  0  0  0  0  0  0  0
   -5.1500    1.2666   -0.8417 C   0  0  0  0  0  0  0  0  0  0  0  0
   -6.5236    1.2209   -0.5843 C   0  0  0  0  0  0  0  0  0  0  0  0
   -7.0333    0.3272    0.3628 C   0  0  0  0  0  0  0  0  0  0  0  0
   -8.4040    0.2932    0.6088 O   0  0  0  0  0  0  0  0  0  0  0  0
   -6.1621   -0.5264    1.0522 C   0  0  0  0  0  0  0  0  0  0  0  0
   -4.7882   -0.4830    0.7972 C   0  0  0  0  0  0  0  0  0  0  0  0
    7.6088   -0.6947    0.4094 H   0  0  0  0  0  0  0  0  0  0  0  0
    6.3887   -0.9051    1.7091 H   0  0  0  0  0  0  0  0  0  0  0  0
    6.2202   -1.8004    0.1421 H   0  0  0  0  0  0  0  0  0  0  0  0
    7.4800    1.2810   -0.7238 H   0  0  0  0  0  0  0  0  0  0  0  0
    5.9949    1.4831   -1.7192 H   0  0  0  0  0  0  0  0  0  0  0  0
    6.1738    2.3823   -0.1594 H   0  0  0  0  0  0  0  0  0  0  0  0
    3.8112    1.1629   -0.2371 H   0  0  0  0  0  0  0  0  0  0  0  0
    3.7836   -1.7480    0.4440 H   0  0  0  0  0  0  0  0  0  0  0  0
    3.9279   -0.8237    1.9469 H   0  0  0  0  0  0  0  0  0  0  0  0
    1.7237    0.7784    3.9409 H   0  0  0  0  0  0  0  0  0  0  0  0
   -0.4212    0.7743    2.7940 H   0  0  0  0  0  0  0  0  0  0  0  0
   -2.5310    1.4108   -0.9512 H   0  0  0  0  0  0  0  0  0  0  0  0
   -2.7612   -1.6699   -0.9698 H   0  0  0  0  0  0  0  0  0  0  0  0
   -2.8763   -0.5471   -2.3798 H   0  0  0  0  0  0  0  0  0  0  0  0
    2.9403   -1.3905   -1.5841 H   0  0  0  0  0  0  0  0  0  0  0  0
   -4.7753    1.9586   -1.5856 H   0  0  0  0  0  0  0  0  0  0  0  0
   -7.1932    1.8783   -1.1241 H   0  0  0  0  0  0  0  0  0  0  0  0
   -8.8043   -0.3435    1.2880 H   0  0  0  0  0  0  0  0  0  0  0  0
   -6.5486   -1.2259    1.7825 H   0  0  0  0  0  0  0  0  0  0  0  0
   -4.1302   -1.1575    1.3310 H   0  0  0  0  0  0  0  0  0  0  0  0
  1  2  1  0
  2  3  1  0
  2  4  2  3
  4  5  1  0
  5  6  1  0
  6  7  2  0
  7  8  1  0
  7  9  1  0
  9 10  2  0
 10 11  1  0
 11 12  1  0
 12 13  1  0
 13 14  1  0
 14 15  2  0
 14 16  1  0
 16 17  2  0
 17 18  1  0
 12 19  1  0
 19 20  2  0
 20 21  1  0
 21 22  2  0
 22 23  1  0
 22 24  1  0
 24 25  2  0
 17  6  1  0
 25 19  1  0
 16 10  1  0
  1 26  1  0
  1 27  1  0
  1 28  1  0
  3 29  1  0
  3 30  1  0
  3 31  1  0
  4 32  1  0
  5 33  1  0
  5 34  1  0
  8 35  1  0
  9 36  1  0
 12 37  1  6
 13 38  1  0
 13 39  1  0
 18 40  1  0
 20 41  1  0
 21 42  1  0
 23 43  1  0
 24 44  1  0
 25 45  1  0
M  END
>  <LIG_ID>  (125) 
124

>  <_smiles>  (125) 
CC(C)=CCC1=C(O)C=C2O[C@@H](CC(=O)C2=C1O)C1=CC=C(O)C=C1

>  <_name>  (125) 
6-Prenylnaringenin

>  <_molecular_weight>  (125) 
340.37

>  <_formula>  (125) 
C20H20O5

>  <_logP>  (125) 
4.018600000000003

>  <_molecular_wt_calculated>  (125) 
340.3749999999997

>  <_havy_atom_count>  (125) 
25

>  <_hydrogen_acceptors>  (125) 
5

>  <_hydrogen_donors>  (125) 
3

>  <_rotatable_bonds>  (125) 
8

>  <_amide_bonds>  (125) 
0

>  <_ring_count>  (125) 
3

$$$$
6-Geranylnaringenin
     RDKit          3D

 58 60  0  0  0  0  0  0  0  0999 V2000
   -7.0946    0.1459    1.6497 C   0  0  0  0  0  0  0  0  0  0  0  0
   -5.5861    0.1644    1.7197 C   0  0  0  0  0  0  0  0  0  0  0  0
   -4.8770   -0.6341    2.7827 C   0  0  0  0  0  0  0  0  0  0  0  0
   -4.8475    0.8823    0.8478 C   0  0  0  0  0  0  0  0  0  0  0  0
   -5.4542    1.7166   -0.2573 C   0  0  0  0  0  0  0  0  0  0  0  0
   -4.3872    2.3773   -1.1415 C   0  0  0  0  0  0  0  0  0  0  0  0
   -3.6351    1.3560   -1.9699 C   0  0  0  0  0  0  0  0  0  0  0  0
   -4.3084    0.7677   -3.1865 C   0  0  0  0  0  0  0  0  0  0  0  0
   -2.4017    0.9600   -1.5869 C   0  0  0  0  0  0  0  0  0  0  0  0
   -1.6039   -0.0854   -2.3268 C   0  0  0  0  0  0  0  0  0  0  0  0
   -0.2700   -0.3220   -1.6506 C   0  0  0  0  0  0  0  0  0  0  0  0
    0.8228    0.5625   -1.8510 C   0  0  0  0  0  0  0  0  0  0  0  0
    0.6950    1.7063   -2.6467 O   0  0  0  0  0  0  0  0  0  0  0  0
    2.0608    0.3019   -1.2214 C   0  0  0  0  0  0  0  0  0  0  0  0
    2.1940   -0.8177   -0.3819 C   0  0  0  0  0  0  0  0  0  0  0  0
    3.4199   -1.1010    0.2327 O   0  0  0  0  0  0  0  0  0  0  0  0
    4.6411   -0.4891   -0.1892 C   0  0  1  0  0  0  0  0  0  0  0  0
    4.4256    1.0061   -0.4664 C   0  0  0  0  0  0  0  0  0  0  0  0
    3.2394    1.1941   -1.3682 C   0  0  0  0  0  0  0  0  0  0  0  0
    3.2466    2.1369   -2.2045 O   0  0  0  0  0  0  0  0  0  0  0  0
    5.7098   -0.6902    0.8572 C   0  0  0  0  0  0  0  0  0  0  0  0
    7.0229   -1.0128    0.4742 C   0  0  0  0  0  0  0  0  0  0  0  0
    8.0221   -1.1698    1.4396 C   0  0  0  0  0  0  0  0  0  0  0  0
    7.7232   -0.9955    2.7973 C   0  0  0  0  0  0  0  0  0  0  0  0
    8.7106   -1.1497    3.7677 O   0  0  0  0  0  0  0  0  0  0  0  0
    6.4218   -0.6604    3.1835 C   0  0  0  0  0  0  0  0  0  0  0  0
    5.4205   -0.5028    2.2206 C   0  0  0  0  0  0  0  0  0  0  0  0
    1.1039   -1.6497   -0.1411 C   0  0  0  0  0  0  0  0  0  0  0  0
   -0.1244   -1.4101   -0.7637 C   0  0  0  0  0  0  0  0  0  0  0  0
   -1.2038   -2.2544   -0.4994 O   0  0  0  0  0  0  0  0  0  0  0  0
   -7.4925    1.1758    1.7657 H   0  0  0  0  0  0  0  0  0  0  0  0
   -7.4237   -0.2697    0.6743 H   0  0  0  0  0  0  0  0  0  0  0  0
   -7.5319   -0.4819    2.4537 H   0  0  0  0  0  0  0  0  0  0  0  0
   -5.5922   -1.1818    3.4308 H   0  0  0  0  0  0  0  0  0  0  0  0
   -4.2759    0.0451    3.4237 H   0  0  0  0  0  0  0  0  0  0  0  0
   -4.2011   -1.3757    2.3062 H   0  0  0  0  0  0  0  0  0  0  0  0
   -3.7653    0.8619    0.9480 H   0  0  0  0  0  0  0  0  0  0  0  0
   -6.1152    1.0840   -0.8882 H   0  0  0  0  0  0  0  0  0  0  0  0
   -6.0754    2.5167    0.1995 H   0  0  0  0  0  0  0  0  0  0  0  0
   -3.6945    2.9778   -0.5106 H   0  0  0  0  0  0  0  0  0  0  0  0
   -4.8868    3.0950   -1.8275 H   0  0  0  0  0  0  0  0  0  0  0  0
   -3.6993    0.9682   -4.0926 H   0  0  0  0  0  0  0  0  0  0  0  0
   -5.3127    1.2155   -3.3412 H   0  0  0  0  0  0  0  0  0  0  0  0
   -4.4365   -0.3275   -3.0585 H   0  0  0  0  0  0  0  0  0  0  0  0
   -1.9600    1.4056   -0.6981 H   0  0  0  0  0  0  0  0  0  0  0  0
   -2.1909   -1.0270   -2.3712 H   0  0  0  0  0  0  0  0  0  0  0  0
   -1.4467    0.2209   -3.3819 H   0  0  0  0  0  0  0  0  0  0  0  0
   -0.1739    2.0087   -3.0657 H   0  0  0  0  0  0  0  0  0  0  0  0
    4.9527   -0.9781   -1.1400 H   0  0  0  0  0  0  0  0  0  0  0  0
    4.2325    1.5498    0.4837 H   0  0  0  0  0  0  0  0  0  0  0  0
    5.3368    1.4324   -0.9407 H   0  0  0  0  0  0  0  0  0  0  0  0
    7.2742   -1.1420   -0.5713 H   0  0  0  0  0  0  0  0  0  0  0  0
    9.0283   -1.4233    1.1311 H   0  0  0  0  0  0  0  0  0  0  0  0
    9.6631   -1.3912    3.5200 H   0  0  0  0  0  0  0  0  0  0  0  0
    6.1869   -0.5183    4.2307 H   0  0  0  0  0  0  0  0  0  0  0  0
    4.4208   -0.2323    2.5374 H   0  0  0  0  0  0  0  0  0  0  0  0
    1.2164   -2.4944    0.5271 H   0  0  0  0  0  0  0  0  0  0  0  0
   -1.1232   -3.0398    0.1359 H   0  0  0  0  0  0  0  0  0  0  0  0
  1  2  1  0
  2  3  1  0
  2  4  2  3
  4  5  1  0
  5  6  1  0
  6  7  1  0
  7  8  1  0
  7  9  2  0
  9 10  1  0
 10 11  1  0
 11 12  2  0
 12 13  1  0
 12 14  1  0
 14 15  2  0
 15 16  1  0
 16 17  1  0
 17 18  1  0
 18 19  1  0
 19 20  2  0
 17 21  1  0
 21 22  2  0
 22 23  1  0
 23 24  2  0
 24 25  1  0
 24 26  1  0
 26 27  2  0
 15 28  1  0
 28 29  2  0
 29 30  1  0
 29 11  1  0
 19 14  1  0
 27 21  1  0
  1 31  1  0
  1 32  1  0
  1 33  1  0
  3 34  1  0
  3 35  1  0
  3 36  1  0
  4 37  1  0
  5 38  1  0
  5 39  1  0
  6 40  1  0
  6 41  1  0
  8 42  1  0
  8 43  1  0
  8 44  1  0
  9 45  1  0
 10 46  1  0
 10 47  1  0
 13 48  1  0
 17 49  1  6
 18 50  1  0
 18 51  1  0
 22 52  1  0
 23 53  1  0
 25 54  1  0
 26 55  1  0
 27 56  1  0
 28 57  1  0
 30 58  1  0
M  END
>  <LIG_ID>  (126) 
125

>  <_smiles>  (126) 
CC(C)=CCC\C(C)=C\CC1=C(O)C2=C(O[C@@H](CC2=O)C2=CC=C(O)C=C2)C=C1O

>  <_name>  (126) 
6-Geranylnaringenin

>  <_molecular_weight>  (126) 
408.487

>  <_formula>  (126) 
C25H28O5

>  <_logP>  (126) 
5.745100000000007

>  <_molecular_wt_calculated>  (126) 
408.49399999999963

>  <_havy_atom_count>  (126) 
30

>  <_hydrogen_acceptors>  (126) 
5

>  <_hydrogen_donors>  (126) 
3

>  <_rotatable_bonds>  (126) 
12

>  <_amide_bonds>  (126) 
0

>  <_ring_count>  (126) 
3

$$$$
Isoxanthohumol
     RDKit          3D

 48 50  0  0  0  0  0  0  0  0999 V2000
   -1.1363    5.8072    0.1429 C   0  0  0  0  0  0  0  0  0  0  0  0
   -0.2610    4.6870    0.0587 O   0  0  0  0  0  0  0  0  0  0  0  0
   -0.6651    3.3738   -0.2364 C   0  0  0  0  0  0  0  0  0  0  0  0
    0.2999    2.3450   -0.2873 C   0  0  0  0  0  0  0  0  0  0  0  0
    1.7351    2.5822    0.0109 C   0  0  0  0  0  0  0  0  0  0  0  0
    2.1892    3.7491    0.1545 O   0  0  0  0  0  0  0  0  0  0  0  0
    2.6538    1.4103    0.2044 C   0  0  0  0  0  0  0  0  0  0  0  0
    2.2656    0.2744   -0.7597 C   0  0  0  0  0  0  0  0  0  0  0  0
    0.8660    0.0085   -0.6463 O   0  0  0  0  0  0  0  0  0  0  0  0
   -0.0956    1.0270   -0.5895 C   0  0  0  0  0  0  0  0  0  0  0  0
   -1.4490    0.7206   -0.8231 C   0  0  0  0  0  0  0  0  0  0  0  0
   -1.8677   -0.7037   -1.1022 C   0  0  0  0  0  0  0  0  0  0  0  0
   -2.0807   -1.4381    0.1996 C   0  0  0  0  0  0  0  0  0  0  0  0
   -3.2129   -2.0900    0.5457 C   0  0  0  0  0  0  0  0  0  0  0  0
   -3.2592   -2.7853    1.8821 C   0  0  0  0  0  0  0  0  0  0  0  0
   -4.4191   -2.1437   -0.3608 C   0  0  0  0  0  0  0  0  0  0  0  0
   -2.4105    1.7438   -0.7466 C   0  0  0  0  0  0  0  0  0  0  0  0
   -3.7605    1.4539   -0.9459 O   0  0  0  0  0  0  0  0  0  0  0  0
   -2.0162    3.0579   -0.4697 C   0  0  0  0  0  0  0  0  0  0  0  0
    3.0333   -1.0234   -0.5701 C   0  0  0  0  0  0  0  0  0  0  0  0
    2.6668   -2.1333   -1.3540 C   0  0  0  0  0  0  0  0  0  0  0  0
    3.3465   -3.3486   -1.2354 C   0  0  0  0  0  0  0  0  0  0  0  0
    4.4107   -3.4745   -0.3401 C   0  0  0  0  0  0  0  0  0  0  0  0
    5.0789   -4.6920   -0.2316 O   0  0  0  0  0  0  0  0  0  0  0  0
    4.7968   -2.3759    0.4367 C   0  0  0  0  0  0  0  0  0  0  0  0
    4.1197   -1.1578    0.3218 C   0  0  0  0  0  0  0  0  0  0  0  0
   -1.8851    5.6473    0.9472 H   0  0  0  0  0  0  0  0  0  0  0  0
   -0.5431    6.7124    0.3859 H   0  0  0  0  0  0  0  0  0  0  0  0
   -1.6462    5.9678   -0.8304 H   0  0  0  0  0  0  0  0  0  0  0  0
    3.7031    1.7249    0.0128 H   0  0  0  0  0  0  0  0  0  0  0  0
    2.5576    1.0673    1.2572 H   0  0  0  0  0  0  0  0  0  0  0  0
    2.4666    0.6293   -1.7954 H   0  0  0  0  0  0  0  0  0  0  0  0
   -1.0754   -1.2305   -1.6753 H   0  0  0  0  0  0  0  0  0  0  0  0
   -2.7620   -0.7145   -1.7570 H   0  0  0  0  0  0  0  0  0  0  0  0
   -1.2406   -1.4529    0.8907 H   0  0  0  0  0  0  0  0  0  0  0  0
   -4.2363   -3.2824    2.0549 H   0  0  0  0  0  0  0  0  0  0  0  0
   -3.0975   -2.0460    2.6952 H   0  0  0  0  0  0  0  0  0  0  0  0
   -2.4628   -3.5580    1.9309 H   0  0  0  0  0  0  0  0  0  0  0  0
   -4.7994   -1.1177   -0.5468 H   0  0  0  0  0  0  0  0  0  0  0  0
   -5.2431   -2.7337    0.0912 H   0  0  0  0  0  0  0  0  0  0  0  0
   -4.1473   -2.6235   -1.3246 H   0  0  0  0  0  0  0  0  0  0  0  0
   -4.4735    2.1721   -0.8943 H   0  0  0  0  0  0  0  0  0  0  0  0
   -2.7758    3.8262   -0.4264 H   0  0  0  0  0  0  0  0  0  0  0  0
    1.8491   -2.0573   -2.0606 H   0  0  0  0  0  0  0  0  0  0  0  0
    3.0466   -4.1931   -1.8428 H   0  0  0  0  0  0  0  0  0  0  0  0
    5.8552   -4.8148    0.4080 H   0  0  0  0  0  0  0  0  0  0  0  0
    5.6246   -2.4636    1.1290 H   0  0  0  0  0  0  0  0  0  0  0  0
    4.4570   -0.3338    0.9339 H   0  0  0  0  0  0  0  0  0  0  0  0
  1  2  1  0
  2  3  1  0
  3  4  2  0
  4  5  1  0
  5  6  2  0
  5  7  1  0
  7  8  1  0
  8  9  1  0
  9 10  1  0
 10 11  2  0
 11 12  1  0
 12 13  1  0
 13 14  2  3
 14 15  1  0
 14 16  1  0
 11 17  1  0
 17 18  1  0
 17 19  2  0
  8 20  1  0
 20 21  2  0
 21 22  1  0
 22 23  2  0
 23 24  1  0
 23 25  1  0
 25 26  2  0
 19  3  1  0
 26 20  1  0
 10  4  1  0
  1 27  1  0
  1 28  1  0
  1 29  1  0
  7 30  1  0
  7 31  1  0
  8 32  1  0
 12 33  1  0
 12 34  1  0
 13 35  1  0
 15 36  1  0
 15 37  1  0
 15 38  1  0
 16 39  1  0
 16 40  1  0
 16 41  1  0
 18 42  1  0
 19 43  1  0
 21 44  1  0
 22 45  1  0
 24 46  1  0
 25 47  1  0
 26 48  1  0
M  END
>  <LIG_ID>  (127) 
126

>  <_smiles>  (127) 
COC1=C2C(=O)CC(OC2=C(CC=C(C)C)C(O)=C1)C1=CC=C(O)C=C1

>  <_name>  (127) 
Isoxanthohumol

>  <_molecular_weight>  (127) 
354.396

>  <_formula>  (127) 
C21H22O5

>  <_logP>  (127) 
4.321600000000004

>  <_molecular_wt_calculated>  (127) 
354.4019999999997

>  <_havy_atom_count>  (127) 
26

>  <_hydrogen_acceptors>  (127) 
5

>  <_hydrogen_donors>  (127) 
2

>  <_rotatable_bonds>  (127) 
9

>  <_amide_bonds>  (127) 
0

>  <_ring_count>  (127) 
3

$$$$
Eriodictyol 7-O-glucoside
     RDKit          3D

 54 57  0  0  0  0  0  0  0  0999 V2000
   -3.0970    2.3251    1.7552 O   0  0  0  0  0  0  0  0  0  0  0  0
   -4.2457    1.8048    1.1451 C   0  0  0  0  0  0  0  0  0  0  0  0
   -4.1194    1.9183   -0.3800 C   0  0  1  0  0  0  0  0  0  0  0  0
   -2.9303    1.2745   -0.8361 O   0  0  0  0  0  0  0  0  0  0  0  0
   -3.1567   -0.0739   -1.2097 C   0  0  2  0  0  0  0  0  0  0  0  0
   -1.9028   -0.7199   -1.4343 O   0  0  0  0  0  0  0  0  0  0  0  0
   -0.9206   -0.9435   -0.4568 C   0  0  0  0  0  0  0  0  0  0  0  0
   -1.1154   -0.6309    0.8996 C   0  0  0  0  0  0  0  0  0  0  0  0
   -0.1135   -0.8767    1.8457 C   0  0  0  0  0  0  0  0  0  0  0  0
   -0.4141   -0.6182    3.1849 O   0  0  0  0  0  0  0  0  0  0  0  0
    1.1333   -1.4019    1.4229 C   0  0  0  0  0  0  0  0  0  0  0  0
    2.2873   -1.6190    2.3229 C   0  0  0  0  0  0  0  0  0  0  0  0
    2.4269   -0.9667    3.3912 O   0  0  0  0  0  0  0  0  0  0  0  0
    3.3459   -2.5942    1.9081 C   0  0  0  0  0  0  0  0  0  0  0  0
    3.7059   -2.3938    0.4255 C   0  0  0  0  0  0  0  0  0  0  0  0
    2.5312   -2.2686   -0.3882 O   0  0  0  0  0  0  0  0  0  0  0  0
    1.3166   -1.7290    0.0646 C   0  0  0  0  0  0  0  0  0  0  0  0
    0.2918   -1.5078   -0.8577 C   0  0  0  0  0  0  0  0  0  0  0  0
    4.6355   -1.2094    0.2362 C   0  0  0  0  0  0  0  0  0  0  0  0
    4.1433    0.1012    0.0878 C   0  0  0  0  0  0  0  0  0  0  0  0
    5.0207    1.1831   -0.0475 C   0  0  0  0  0  0  0  0  0  0  0  0
    4.4949    2.4657   -0.2003 O   0  0  0  0  0  0  0  0  0  0  0  0
    6.4080    0.9660   -0.0253 C   0  0  0  0  0  0  0  0  0  0  0  0
    7.2866    2.0397   -0.1613 O   0  0  0  0  0  0  0  0  0  0  0  0
    6.9039   -0.3336    0.1372 C   0  0  0  0  0  0  0  0  0  0  0  0
    6.0258   -1.4113    0.2730 C   0  0  0  0  0  0  0  0  0  0  0  0
   -4.0151   -0.1411   -2.4980 C   0  0  2  0  0  0  0  0  0  0  0  0
   -3.2023   -0.0227   -3.6396 O   0  0  0  0  0  0  0  0  0  0  0  0
   -5.0789    0.9830   -2.5280 C   0  0  1  0  0  0  0  0  0  0  0  0
   -6.2458    0.5324   -3.1660 O   0  0  0  0  0  0  0  0  0  0  0  0
   -5.4170    1.4398   -1.1000 C   0  0  2  0  0  0  0  0  0  0  0  0
   -6.3966    2.4499   -1.1042 O   0  0  0  0  0  0  0  0  0  0  0  0
   -3.2224    2.1991    2.7315 H   0  0  0  0  0  0  0  0  0  0  0  0
   -4.3799    0.7406    1.4403 H   0  0  0  0  0  0  0  0  0  0  0  0
   -5.1361    2.3801    1.4847 H   0  0  0  0  0  0  0  0  0  0  0  0
   -3.9888    2.9987   -0.6098 H   0  0  0  0  0  0  0  0  0  0  0  0
   -3.6883   -0.6258   -0.4003 H   0  0  0  0  0  0  0  0  0  0  0  0
   -2.0553   -0.2245    1.2414 H   0  0  0  0  0  0  0  0  0  0  0  0
    0.1533   -0.9318    3.9592 H   0  0  0  0  0  0  0  0  0  0  0  0
    2.9462   -3.6213    2.0500 H   0  0  0  0  0  0  0  0  0  0  0  0
    4.2509   -2.4902    2.5467 H   0  0  0  0  0  0  0  0  0  0  0  0
    4.2372   -3.3090    0.0836 H   0  0  0  0  0  0  0  0  0  0  0  0
    0.4473   -1.7584   -1.8997 H   0  0  0  0  0  0  0  0  0  0  0  0
    3.0805    0.2953    0.0777 H   0  0  0  0  0  0  0  0  0  0  0  0
    5.0868    3.2816   -0.3009 H   0  0  0  0  0  0  0  0  0  0  0  0
    8.2913    1.9083   -0.1474 H   0  0  0  0  0  0  0  0  0  0  0  0
    7.9718   -0.5097    0.1627 H   0  0  0  0  0  0  0  0  0  0  0  0
    6.4320   -2.4060    0.4093 H   0  0  0  0  0  0  0  0  0  0  0  0
   -4.5381   -1.1281   -2.5059 H   0  0  0  0  0  0  0  0  0  0  0  0
   -2.8704   -0.9327   -3.8582 H   0  0  0  0  0  0  0  0  0  0  0  0
   -4.6712    1.8647   -3.0789 H   0  0  0  0  0  0  0  0  0  0  0  0
   -6.0372    0.4790   -4.1353 H   0  0  0  0  0  0  0  0  0  0  0  0
   -5.8414    0.5654   -0.5568 H   0  0  0  0  0  0  0  0  0  0  0  0
   -6.0545    3.2031   -1.6534 H   0  0  0  0  0  0  0  0  0  0  0  0
  1  2  1  0
  2  3  1  0
  3  4  1  0
  4  5  1  0
  5  6  1  0
  6  7  1  0
  7  8  2  0
  8  9  1  0
  9 10  1  0
  9 11  2  0
 11 12  1  0
 12 13  2  0
 12 14  1  0
 14 15  1  0
 15 16  1  0
 16 17  1  0
 17 18  2  0
 15 19  1  0
 19 20  2  0
 20 21  1  0
 21 22  1  0
 21 23  2  0
 23 24  1  0
 23 25  1  0
 25 26  2  0
  5 27  1  0
 27 28  1  0
 27 29  1  0
 29 30  1  0
 29 31  1  0
 31 32  1  0
 31  3  1  0
 18  7  1  0
 26 19  1  0
 17 11  1  0
  1 33  1  0
  2 34  1  0
  2 35  1  0
  3 36  1  1
  5 37  1  1
  8 38  1  0
 10 39  1  0
 14 40  1  0
 14 41  1  0
 15 42  1  0
 18 43  1  0
 20 44  1  0
 22 45  1  0
 24 46  1  0
 25 47  1  0
 26 48  1  0
 27 49  1  6
 28 50  1  0
 29 51  1  6
 30 52  1  0
 31 53  1  1
 32 54  1  0
M  END
>  <LIG_ID>  (128) 
127

>  <_smiles>  (128) 
OC[C@H]1O[C@H](OC2=CC(O)=C3C(=O)CC(OC3=C2)C2=CC(O)=C(O)C=C2)[C@H](O)[C@@H](O)[C@@H]1O

>  <_name>  (128) 
Eriodictyol 7-O-glucoside

>  <_molecular_weight>  (128) 
450.393

>  <_formula>  (128) 
C21H22O11

>  <_logP>  (128) 
-0.31140000000000034

>  <_molecular_wt_calculated>  (128) 
450.39599999999984

>  <_havy_atom_count>  (128) 
32

>  <_hydrogen_acceptors>  (128) 
11

>  <_hydrogen_donors>  (128) 
7

>  <_rotatable_bonds>  (128) 
11

>  <_amide_bonds>  (128) 
0

>  <_ring_count>  (128) 
4

$$$$
Sakuranetin
     RDKit          3D

 35 37  0  0  0  0  0  0  0  0999 V2000
    4.8606    1.4086   -1.8157 C   0  0  0  0  0  0  0  0  0  0  0  0
    4.8256    0.1382   -1.1737 O   0  0  0  0  0  0  0  0  0  0  0  0
    3.6907   -0.4057   -0.5535 C   0  0  0  0  0  0  0  0  0  0  0  0
    3.7982   -1.6672    0.0376 C   0  0  0  0  0  0  0  0  0  0  0  0
    2.6996   -2.2745    0.6571 C   0  0  0  0  0  0  0  0  0  0  0  0
    2.8716   -3.5745    1.1380 O   0  0  0  0  0  0  0  0  0  0  0  0
    1.4688   -1.5740    0.7396 C   0  0  0  0  0  0  0  0  0  0  0  0
    0.2625   -2.0894    1.4332 C   0  0  0  0  0  0  0  0  0  0  0  0
    0.3381   -2.9735    2.3268 O   0  0  0  0  0  0  0  0  0  0  0  0
   -1.0719   -1.4903    1.1024 C   0  0  0  0  0  0  0  0  0  0  0  0
   -0.9325    0.0367    1.0284 C   0  0  0  0  0  0  0  0  0  0  0  0
    0.1504    0.4018    0.1678 O   0  0  0  0  0  0  0  0  0  0  0  0
    1.3614   -0.3040    0.1345 C   0  0  0  0  0  0  0  0  0  0  0  0
    2.4586    0.2672   -0.5141 C   0  0  0  0  0  0  0  0  0  0  0  0
   -2.2146    0.6668    0.5420 C   0  0  0  0  0  0  0  0  0  0  0  0
   -2.5457    0.6513   -0.8247 C   0  0  0  0  0  0  0  0  0  0  0  0
   -3.7489    1.2094   -1.2666 C   0  0  0  0  0  0  0  0  0  0  0  0
   -4.6390    1.7786   -0.3508 C   0  0  0  0  0  0  0  0  0  0  0  0
   -5.8341    2.3313   -0.8054 O   0  0  0  0  0  0  0  0  0  0  0  0
   -4.3223    1.7850    1.0141 C   0  0  0  0  0  0  0  0  0  0  0  0
   -3.1197    1.2276    1.4591 C   0  0  0  0  0  0  0  0  0  0  0  0
    4.6203    2.2115   -1.0870 H   0  0  0  0  0  0  0  0  0  0  0  0
    4.1394    1.4298   -2.6600 H   0  0  0  0  0  0  0  0  0  0  0  0
    5.8802    1.5850   -2.2152 H   0  0  0  0  0  0  0  0  0  0  0  0
    4.7417   -2.1971   -0.0115 H   0  0  0  0  0  0  0  0  0  0  0  0
    2.1122   -4.1781    1.4175 H   0  0  0  0  0  0  0  0  0  0  0  0
   -1.4086   -1.8959    0.1237 H   0  0  0  0  0  0  0  0  0  0  0  0
   -1.8216   -1.7626    1.8777 H   0  0  0  0  0  0  0  0  0  0  0  0
   -0.6943    0.4145    2.0485 H   0  0  0  0  0  0  0  0  0  0  0  0
    2.3429    1.2411   -0.9701 H   0  0  0  0  0  0  0  0  0  0  0  0
   -1.8735    0.2050   -1.5472 H   0  0  0  0  0  0  0  0  0  0  0  0
   -3.9916    1.1961   -2.3216 H   0  0  0  0  0  0  0  0  0  0  0  0
   -6.5003    2.7503   -0.1670 H   0  0  0  0  0  0  0  0  0  0  0  0
   -5.0083    2.2182    1.7309 H   0  0  0  0  0  0  0  0  0  0  0  0
   -2.8958    1.2329    2.5187 H   0  0  0  0  0  0  0  0  0  0  0  0
  1  2  1  0
  2  3  1  0
  3  4  2  0
  4  5  1  0
  5  6  1  0
  5  7  2  0
  7  8  1  0
  8  9  2  0
  8 10  1  0
 10 11  1  0
 11 12  1  0
 12 13  1  0
 13 14  2  0
 11 15  1  0
 15 16  2  0
 16 17  1  0
 17 18  2  0
 18 19  1  0
 18 20  1  0
 20 21  2  0
 14  3  1  0
 21 15  1  0
 13  7  1  0
  1 22  1  0
  1 23  1  0
  1 24  1  0
  4 25  1  0
  6 26  1  0
 10 27  1  0
 10 28  1  0
 11 29  1  0
 14 30  1  0
 16 31  1  0
 17 32  1  0
 19 33  1  0
 20 34  1  0
 21 35  1  0
M  END
>  <LIG_ID>  (129) 
128

>  <_smiles>  (129) 
COC1=CC(O)=C2C(=O)CC(OC2=C1)C1=CC=C(O)C=C1

>  <_name>  (129) 
Sakuranetin

>  <_molecular_weight>  (129) 
286.279

>  <_formula>  (129) 
C16H14O5

>  <_logP>  (129) 
2.812900000000001

>  <_molecular_wt_calculated>  (129) 
286.28299999999973

>  <_havy_atom_count>  (129) 
21

>  <_hydrogen_acceptors>  (129) 
5

>  <_hydrogen_donors>  (129) 
2

>  <_rotatable_bonds>  (129) 
5

>  <_amide_bonds>  (129) 
0

>  <_ring_count>  (129) 
3

$$$$
Apigenin
     RDKit          3D

 30 32  0  0  0  0  0  0  0  0999 V2000
   -6.1285   -0.4595    0.0609 O   0  0  0  0  0  0  0  0  0  0  0  0
   -4.7530   -0.2436    0.0183 C   0  0  0  0  0  0  0  0  0  0  0  0
   -3.8935   -1.3146   -0.2392 C   0  0  0  0  0  0  0  0  0  0  0  0
   -2.5109   -1.1129   -0.2853 C   0  0  0  0  0  0  0  0  0  0  0  0
   -1.9674    0.1689   -0.0835 C   0  0  0  0  0  0  0  0  0  0  0  0
   -2.8411    1.2409    0.1879 C   0  0  0  0  0  0  0  0  0  0  0  0
   -4.2233    1.0345    0.2341 C   0  0  0  0  0  0  0  0  0  0  0  0
   -0.4948    0.3534   -0.1289 C   0  0  0  0  0  0  0  0  0  0  0  0
    0.0876    1.5827   -0.4796 C   0  0  0  0  0  0  0  0  0  0  0  0
    1.4778    1.7009   -0.5076 C   0  0  0  0  0  0  0  0  0  0  0  0
    1.9911    2.8079   -0.8248 O   0  0  0  0  0  0  0  0  0  0  0  0
    2.2773    0.5855   -0.1875 C   0  0  0  0  0  0  0  0  0  0  0  0
    3.6919    0.6200   -0.1904 C   0  0  0  0  0  0  0  0  0  0  0  0
    4.3805    1.7900   -0.5128 O   0  0  0  0  0  0  0  0  0  0  0  0
    4.4159   -0.5367    0.1353 C   0  0  0  0  0  0  0  0  0  0  0  0
    3.7547   -1.7231    0.4619 C   0  0  0  0  0  0  0  0  0  0  0  0
    4.4976   -2.8576    0.7808 O   0  0  0  0  0  0  0  0  0  0  0  0
    2.3563   -1.7630    0.4663 C   0  0  0  0  0  0  0  0  0  0  0  0
    1.6166   -0.6211    0.1457 C   0  0  0  0  0  0  0  0  0  0  0  0
    0.2888   -0.6836    0.1585 O   0  0  0  0  0  0  0  0  0  0  0  0
   -6.7776    0.2963    0.2462 H   0  0  0  0  0  0  0  0  0  0  0  0
   -4.2974   -2.3055   -0.4039 H   0  0  0  0  0  0  0  0  0  0  0  0
   -1.8666   -1.9589   -0.4908 H   0  0  0  0  0  0  0  0  0  0  0  0
   -2.4630    2.2338    0.3901 H   0  0  0  0  0  0  0  0  0  0  0  0
   -4.8813    1.8679    0.4451 H   0  0  0  0  0  0  0  0  0  0  0  0
   -0.5212    2.4343   -0.7545 H   0  0  0  0  0  0  0  0  0  0  0  0
    5.3932    1.8280   -0.5185 H   0  0  0  0  0  0  0  0  0  0  0  0
    5.4986   -0.5144    0.1343 H   0  0  0  0  0  0  0  0  0  0  0  0
    4.0494   -3.7338    1.0223 H   0  0  0  0  0  0  0  0  0  0  0  0
    1.8424   -2.6822    0.7197 H   0  0  0  0  0  0  0  0  0  0  0  0
  1  2  1  0
  2  3  2  0
  3  4  1  0
  4  5  2  0
  5  6  1  0
  6  7  2  0
  5  8  1  0
  8  9  2  0
  9 10  1  0
 10 11  2  0
 10 12  1  0
 12 13  2  0
 13 14  1  0
 13 15  1  0
 15 16  2  0
 16 17  1  0
 16 18  1  0
 18 19  2  0
 19 20  1  0
  7  2  1  0
 20  8  1  0
 19 12  1  0
  1 21  1  0
  3 22  1  0
  4 23  1  0
  6 24  1  0
  7 25  1  0
  9 26  1  0
 14 27  1  0
 15 28  1  0
 17 29  1  0
 18 30  1  0
M  END
>  <LIG_ID>  (130) 
129

>  <_smiles>  (130) 
OC1=CC=C(C=C1)C1=CC(=O)C2=C(O)C=C(O)C=C2O1

>  <_name>  (130) 
Apigenin

>  <_molecular_weight>  (130) 
270.237

>  <_formula>  (130) 
C15H10O5

>  <_logP>  (130) 
2.5768000000000004

>  <_molecular_wt_calculated>  (130) 
270.2399999999998

>  <_havy_atom_count>  (130) 
20

>  <_hydrogen_acceptors>  (130) 
5

>  <_hydrogen_donors>  (130) 
3

>  <_rotatable_bonds>  (130) 
4

>  <_amide_bonds>  (130) 
0

>  <_ring_count>  (130) 
3

$$$$
Luteolin
     RDKit          3D

 31 33  0  0  0  0  0  0  0  0999 V2000
   -5.0407    2.2022   -1.0796 O   0  0  0  0  0  0  0  0  0  0  0  0
   -4.1559    1.2171   -0.6464 C   0  0  0  0  0  0  0  0  0  0  0  0
   -4.6559    0.0324   -0.1073 C   0  0  0  0  0  0  0  0  0  0  0  0
   -3.7969   -0.9860    0.3242 C   0  0  0  0  0  0  0  0  0  0  0  0
   -4.4014   -2.1666    0.7660 O   0  0  0  0  0  0  0  0  0  0  0  0
   -2.3851   -0.7850    0.2694 C   0  0  0  0  0  0  0  0  0  0  0  0
   -1.4223   -1.6891    0.7779 C   0  0  0  0  0  0  0  0  0  0  0  0
   -1.7502   -2.7355    1.3948 O   0  0  0  0  0  0  0  0  0  0  0  0
   -0.0629   -1.4089    0.6324 C   0  0  0  0  0  0  0  0  0  0  0  0
    0.3367   -0.2178    0.0110 C   0  0  0  0  0  0  0  0  0  0  0  0
   -0.5877    0.6400   -0.4085 O   0  0  0  0  0  0  0  0  0  0  0  0
   -1.8937    0.4195   -0.3011 C   0  0  0  0  0  0  0  0  0  0  0  0
   -2.7769    1.4021   -0.7546 C   0  0  0  0  0  0  0  0  0  0  0  0
    1.7689    0.1295   -0.1706 C   0  0  0  0  0  0  0  0  0  0  0  0
    2.7610   -0.8625   -0.2975 C   0  0  0  0  0  0  0  0  0  0  0  0
    4.1065   -0.5088   -0.4784 C   0  0  0  0  0  0  0  0  0  0  0  0
    5.0804   -1.4988   -0.6009 O   0  0  0  0  0  0  0  0  0  0  0  0
    4.4705    0.8461   -0.5402 C   0  0  0  0  0  0  0  0  0  0  0  0
    5.7998    1.2291   -0.7158 O   0  0  0  0  0  0  0  0  0  0  0  0
    3.4880    1.8333   -0.4280 C   0  0  0  0  0  0  0  0  0  0  0  0
    2.1482    1.4805   -0.2498 C   0  0  0  0  0  0  0  0  0  0  0  0
   -4.7102    3.0733   -1.4784 H   0  0  0  0  0  0  0  0  0  0  0  0
   -5.7278   -0.1122   -0.0486 H   0  0  0  0  0  0  0  0  0  0  0  0
   -3.9344   -3.0562    0.8523 H   0  0  0  0  0  0  0  0  0  0  0  0
    0.6659   -2.0983    1.0396 H   0  0  0  0  0  0  0  0  0  0  0  0
   -2.3872    2.3181   -1.1817 H   0  0  0  0  0  0  0  0  0  0  0  0
    2.4975   -1.9116   -0.2831 H   0  0  0  0  0  0  0  0  0  0  0  0
    4.8451   -2.4836   -0.5607 H   0  0  0  0  0  0  0  0  0  0  0  0
    6.5480    0.5518   -0.8028 H   0  0  0  0  0  0  0  0  0  0  0  0
    3.7641    2.8790   -0.4788 H   0  0  0  0  0  0  0  0  0  0  0  0
    1.4086    2.2669   -0.1615 H   0  0  0  0  0  0  0  0  0  0  0  0
  1  2  1  0
  2  3  2  0
  3  4  1  0
  4  5  1  0
  4  6  2  0
  6  7  1  0
  7  8  2  0
  7  9  1  0
  9 10  2  0
 10 11  1  0
 11 12  1  0
 12 13  2  0
 10 14  1  0
 14 15  2  0
 15 16  1  0
 16 17  1  0
 16 18  2  0
 18 19  1  0
 18 20  1  0
 20 21  2  0
 13  2  1  0
 21 14  1  0
 12  6  1  0
  1 22  1  0
  3 23  1  0
  5 24  1  0
  9 25  1  0
 13 26  1  0
 15 27  1  0
 17 28  1  0
 19 29  1  0
 20 30  1  0
 21 31  1  0
M  END
>  <LIG_ID>  (131) 
130

>  <_smiles>  (131) 
OC1=CC(O)=C2C(=O)C=C(OC2=C1)C1=CC(O)=C(O)C=C1

>  <_name>  (131) 
Luteolin

>  <_molecular_weight>  (131) 
286.236

>  <_formula>  (131) 
C15H10O6

>  <_logP>  (131) 
2.282400000000001

>  <_molecular_wt_calculated>  (131) 
286.2389999999998

>  <_havy_atom_count>  (131) 
21

>  <_hydrogen_acceptors>  (131) 
6

>  <_hydrogen_donors>  (131) 
4

>  <_rotatable_bonds>  (131) 
5

>  <_amide_bonds>  (131) 
0

>  <_ring_count>  (131) 
3

$$$$
Diosmin
     RDKit          3D

 75 79  0  0  0  0  0  0  0  0999 V2000
   10.8839   -1.4770   -1.0517 C   0  0  0  0  0  0  0  0  0  0  0  0
   10.5370   -0.5943    0.0104 O   0  0  0  0  0  0  0  0  0  0  0  0
    9.2227   -0.3337    0.4290 C   0  0  0  0  0  0  0  0  0  0  0  0
    9.0228    0.5599    1.4895 C   0  0  0  0  0  0  0  0  0  0  0  0
   10.1233    1.1683    2.0916 O   0  0  0  0  0  0  0  0  0  0  0  0
    7.7254    0.8439    1.9395 C   0  0  0  0  0  0  0  0  0  0  0  0
    6.6086    0.2329    1.3392 C   0  0  0  0  0  0  0  0  0  0  0  0
    6.8159   -0.6501    0.2667 C   0  0  0  0  0  0  0  0  0  0  0  0
    8.1076   -0.9357   -0.1819 C   0  0  0  0  0  0  0  0  0  0  0  0
    5.2236    0.5231    1.7886 C   0  0  0  0  0  0  0  0  0  0  0  0
    4.9376    0.9044    3.1098 C   0  0  0  0  0  0  0  0  0  0  0  0
    3.6170    1.1640    3.4786 C   0  0  0  0  0  0  0  0  0  0  0  0
    3.3698    1.5051    4.6668 O   0  0  0  0  0  0  0  0  0  0  0  0
    2.5898    1.0360    2.5223 C   0  0  0  0  0  0  0  0  0  0  0  0
    1.2287    1.2847    2.8104 C   0  0  0  0  0  0  0  0  0  0  0  0
    0.8266    1.6858    4.0850 O   0  0  0  0  0  0  0  0  0  0  0  0
    0.2657    1.1270    1.8038 C   0  0  0  0  0  0  0  0  0  0  0  0
    0.6265    0.7193    0.5162 C   0  0  0  0  0  0  0  0  0  0  0  0
   -0.3949    0.5793   -0.4369 O   0  0  0  0  0  0  0  0  0  0  0  0
   -0.2954   -0.0922   -1.6968 C   0  0  2  0  0  0  0  0  0  0  0  0
   -1.3716    0.3212   -2.5346 O   0  0  0  0  0  0  0  0  0  0  0  0
   -2.5943   -0.3709   -2.3070 C   0  0  2  0  0  0  0  0  0  0  0  0
   -3.2091   -0.0358   -0.9294 C   0  0  0  0  0  0  0  0  0  0  0  0
   -4.5517   -0.4848   -0.8682 O   0  0  0  0  0  0  0  0  0  0  0  0
   -5.4621    0.5736   -1.1128 C   0  0  2  0  0  0  0  0  0  0  0  0
   -5.5193    1.4438    0.0154 O   0  0  0  0  0  0  0  0  0  0  0  0
   -6.3649    0.9249    1.0246 C   0  0  1  0  0  0  0  0  0  0  0  0
   -6.1277    1.7022    2.3190 C   0  0  0  0  0  0  0  0  0  0  0  0
   -7.8484    1.0181    0.5805 C   0  0  2  0  0  0  0  0  0  0  0  0
   -8.5797    0.0074    1.2275 O   0  0  0  0  0  0  0  0  0  0  0  0
   -7.9802    0.8693   -0.9559 C   0  0  1  0  0  0  0  0  0  0  0  0
   -7.9211    2.1421   -1.5519 O   0  0  0  0  0  0  0  0  0  0  0  0
   -6.8453   -0.0207   -1.4991 C   0  0  1  0  0  0  0  0  0  0  0  0
   -6.9371   -0.1490   -2.8951 O   0  0  0  0  0  0  0  0  0  0  0  0
   -2.4655   -1.9041   -2.5625 C   0  0  1  0  0  0  0  0  0  0  0  0
   -3.1214   -2.2768   -3.7500 O   0  0  0  0  0  0  0  0  0  0  0  0
   -0.9898   -2.3478   -2.6072 C   0  0  2  0  0  0  0  0  0  0  0  0
   -0.8820   -3.7457   -2.4897 O   0  0  0  0  0  0  0  0  0  0  0  0
   -0.2023   -1.6329   -1.5037 C   0  0  1  0  0  0  0  0  0  0  0  0
    1.1397   -2.0488   -1.5575 O   0  0  0  0  0  0  0  0  0  0  0  0
    1.9813    0.4853    0.2251 C   0  0  0  0  0  0  0  0  0  0  0  0
    2.9557    0.6369    1.2158 C   0  0  0  0  0  0  0  0  0  0  0  0
    4.2286    0.4022    0.9127 O   0  0  0  0  0  0  0  0  0  0  0  0
   11.9873   -1.4927   -1.1641 H   0  0  0  0  0  0  0  0  0  0  0  0
   10.4346   -1.1240   -2.0038 H   0  0  0  0  0  0  0  0  0  0  0  0
   10.5353   -2.5061   -0.8222 H   0  0  0  0  0  0  0  0  0  0  0  0
   10.0155    1.8200    2.8601 H   0  0  0  0  0  0  0  0  0  0  0  0
    7.5991    1.5608    2.7396 H   0  0  0  0  0  0  0  0  0  0  0  0
    5.9764   -1.1319   -0.2197 H   0  0  0  0  0  0  0  0  0  0  0  0
    8.2277   -1.6268   -1.0049 H   0  0  0  0  0  0  0  0  0  0  0  0
    5.7190    0.9755    3.8554 H   0  0  0  0  0  0  0  0  0  0  0  0
   -0.1460    1.8671    4.3047 H   0  0  0  0  0  0  0  0  0  0  0  0
   -0.7777    1.3155    2.0250 H   0  0  0  0  0  0  0  0  0  0  0  0
    0.6215    0.2556   -2.2168 H   0  0  0  0  0  0  0  0  0  0  0  0
   -3.3096    0.0338   -3.0556 H   0  0  0  0  0  0  0  0  0  0  0  0
   -2.6480   -0.5629   -0.1307 H   0  0  0  0  0  0  0  0  0  0  0  0
   -3.0963    1.0546   -0.7199 H   0  0  0  0  0  0  0  0  0  0  0  0
   -5.1246    1.1894   -1.9797 H   0  0  0  0  0  0  0  0  0  0  0  0
   -6.1002   -0.1389    1.2370 H   0  0  0  0  0  0  0  0  0  0  0  0
   -6.3321    2.7837    2.1668 H   0  0  0  0  0  0  0  0  0  0  0  0
   -6.7867    1.3162    3.1257 H   0  0  0  0  0  0  0  0  0  0  0  0
   -5.0706    1.5833    2.6389 H   0  0  0  0  0  0  0  0  0  0  0  0
   -8.2615    2.0139    0.8725 H   0  0  0  0  0  0  0  0  0  0  0  0
   -9.5363    0.2706    1.1848 H   0  0  0  0  0  0  0  0  0  0  0  0
   -8.9633    0.3966   -1.1919 H   0  0  0  0  0  0  0  0  0  0  0  0
   -8.3350    2.0615   -2.4507 H   0  0  0  0  0  0  0  0  0  0  0  0
   -6.9453   -1.0302   -1.0326 H   0  0  0  0  0  0  0  0  0  0  0  0
   -7.7106   -0.7440   -3.0781 H   0  0  0  0  0  0  0  0  0  0  0  0
   -2.9656   -2.4514   -1.7331 H   0  0  0  0  0  0  0  0  0  0  0  0
   -2.6997   -1.7755   -4.4966 H   0  0  0  0  0  0  0  0  0  0  0  0
   -0.5494   -2.0560   -3.5871 H   0  0  0  0  0  0  0  0  0  0  0  0
   -1.2120   -4.0018   -1.5887 H   0  0  0  0  0  0  0  0  0  0  0  0
   -0.6575   -1.9081   -0.5207 H   0  0  0  0  0  0  0  0  0  0  0  0
    1.4382   -2.2078   -0.6242 H   0  0  0  0  0  0  0  0  0  0  0  0
    2.2992    0.1970   -0.7656 H   0  0  0  0  0  0  0  0  0  0  0  0
  1  2  1  0
  2  3  1  0
  3  4  2  0
  4  5  1  0
  4  6  1  0
  6  7  2  0
  7  8  1  0
  8  9  2  0
  7 10  1  0
 10 11  2  0
 11 12  1  0
 12 13  2  0
 12 14  1  0
 14 15  2  0
 15 16  1  0
 15 17  1  0
 17 18  2  0
 18 19  1  0
 19 20  1  0
 20 21  1  0
 21 22  1  0
 22 23  1  0
 23 24  1  0
 24 25  1  0
 25 26  1  0
 26 27  1  0
 27 28  1  0
 27 29  1  0
 29 30  1  0
 29 31  1  0
 31 32  1  0
 31 33  1  0
 33 34  1  0
 22 35  1  0
 35 36  1  0
 35 37  1  0
 37 38  1  0
 37 39  1  0
 39 40  1  0
 18 41  1  0
 41 42  2  0
 42 43  1  0
  9  3  1  0
 43 10  1  0
 42 14  1  0
 39 20  1  0
 33 25  1  0
  1 44  1  0
  1 45  1  0
  1 46  1  0
  5 47  1  0
  6 48  1  0
  8 49  1  0
  9 50  1  0
 11 51  1  0
 16 52  1  0
 17 53  1  0
 20 54  1  6
 22 55  1  6
 23 56  1  0
 23 57  1  0
 25 58  1  6
 27 59  1  1
 28 60  1  0
 28 61  1  0
 28 62  1  0
 29 63  1  1
 30 64  1  0
 31 65  1  1
 32 66  1  0
 33 67  1  1
 34 68  1  0
 35 69  1  1
 36 70  1  0
 37 71  1  6
 38 72  1  0
 39 73  1  1
 40 74  1  0
 41 75  1  0
M  END
>  <LIG_ID>  (132) 
131

>  <_smiles>  (132) 
COC1=C(O)C=C(C=C1)C1=CC(=O)C2=C(O)C=C(O[C@@H]3O[C@H](CO[C@@H]4O[C@@H](C)[C@H](O)[C@@H](O)[C@H]4O)[C@@H](O)[C@H](O)[C@H]3O)C=C2O1

>  <_name>  (132) 
Diosmin

>  <_molecular_weight>  (132) 
608.545

>  <_formula>  (132) 
C28H32O15

>  <_logP>  (132) 
-1.0897000000000006

>  <_molecular_wt_calculated>  (132) 
608.5490000000016

>  <_havy_atom_count>  (132) 
43

>  <_hydrogen_acceptors>  (132) 
15

>  <_hydrogen_donors>  (132) 
8

>  <_rotatable_bonds>  (132) 
17

>  <_amide_bonds>  (132) 
0

>  <_ring_count>  (132) 
5

$$$$
Isorhoifolin
     RDKit          3D

 71 75  0  0  0  0  0  0  0  0999 V2000
   -7.4344   -0.0613    0.3851 C   0  0  0  0  0  0  0  0  0  0  0  0
   -6.0548   -0.6968    0.2060 C   0  0  1  0  0  0  0  0  0  0  0  0
   -5.4537   -0.8145    1.4865 O   0  0  0  0  0  0  0  0  0  0  0  0
   -4.1111   -1.2742    1.3971 C   0  0  2  0  0  0  0  0  0  0  0  0
   -3.3050   -0.3854    0.6405 O   0  0  0  0  0  0  0  0  0  0  0  0
   -3.0586    0.7989    1.3727 C   0  0  0  0  0  0  0  0  0  0  0  0
   -2.3484    1.8232    0.4801 C   0  0  1  0  0  0  0  0  0  0  0  0
   -1.1287    1.2587    0.0286 O   0  0  0  0  0  0  0  0  0  0  0  0
   -0.3554    2.2291   -0.6569 C   0  0  1  0  0  0  0  0  0  0  0  0
    0.9088    1.6604   -0.9947 O   0  0  0  0  0  0  0  0  0  0  0  0
    1.8753    1.2424   -0.0661 C   0  0  0  0  0  0  0  0  0  0  0  0
    1.7019    1.3832    1.3230 C   0  0  0  0  0  0  0  0  0  0  0  0
    2.6916    0.9483    2.2169 C   0  0  0  0  0  0  0  0  0  0  0  0
    2.4877    1.0997    3.5892 O   0  0  0  0  0  0  0  0  0  0  0  0
    3.8793    0.3641    1.7198 C   0  0  0  0  0  0  0  0  0  0  0  0
    4.9170   -0.1021    2.5516 C   0  0  0  0  0  0  0  0  0  0  0  0
    4.8365   -0.0266    3.8075 O   0  0  0  0  0  0  0  0  0  0  0  0
    6.0584   -0.6648    1.9792 C   0  0  0  0  0  0  0  0  0  0  0  0
    6.1576   -0.7550    0.5811 C   0  0  0  0  0  0  0  0  0  0  0  0
    5.1550   -0.3140   -0.1755 O   0  0  0  0  0  0  0  0  0  0  0  0
    4.0486    0.2291    0.3223 C   0  0  0  0  0  0  0  0  0  0  0  0
    3.0512    0.6668   -0.5529 C   0  0  0  0  0  0  0  0  0  0  0  0
    7.3470   -1.3449   -0.0837 C   0  0  0  0  0  0  0  0  0  0  0  0
    8.6223   -1.3151    0.5152 C   0  0  0  0  0  0  0  0  0  0  0  0
    9.7261   -1.8701   -0.1397 C   0  0  0  0  0  0  0  0  0  0  0  0
    9.5776   -2.4543   -1.4003 C   0  0  0  0  0  0  0  0  0  0  0  0
   10.6867   -3.0041   -2.0392 O   0  0  0  0  0  0  0  0  0  0  0  0
    8.3173   -2.4781   -2.0096 C   0  0  0  0  0  0  0  0  0  0  0  0
    7.2113   -1.9235   -1.3589 C   0  0  0  0  0  0  0  0  0  0  0  0
   -1.0698    2.6554   -1.9551 C   0  0  2  0  0  0  0  0  0  0  0  0
   -0.3010    3.5945   -2.6655 O   0  0  0  0  0  0  0  0  0  0  0  0
   -2.4688    3.2185   -1.6312 C   0  0  1  0  0  0  0  0  0  0  0  0
   -3.1950    3.4194   -2.8161 O   0  0  0  0  0  0  0  0  0  0  0  0
   -3.2308    2.2298   -0.7300 C   0  0  2  0  0  0  0  0  0  0  0  0
   -4.4542    2.7845   -0.3119 O   0  0  0  0  0  0  0  0  0  0  0  0
   -4.0506   -2.6873    0.7789 C   0  0  1  0  0  0  0  0  0  0  0  0
   -4.5629   -3.6528    1.6671 O   0  0  0  0  0  0  0  0  0  0  0  0
   -4.7795   -2.7280   -0.5778 C   0  0  1  0  0  0  0  0  0  0  0  0
   -4.8926   -4.0609   -1.0076 O   0  0  0  0  0  0  0  0  0  0  0  0
   -6.1727   -2.0768   -0.4778 C   0  0  2  0  0  0  0  0  0  0  0  0
   -6.7095   -1.9146   -1.7667 O   0  0  0  0  0  0  0  0  0  0  0  0
   -7.3290    0.9254    0.8844 H   0  0  0  0  0  0  0  0  0  0  0  0
   -8.0827   -0.7094    1.0130 H   0  0  0  0  0  0  0  0  0  0  0  0
   -7.9230    0.0989   -0.5994 H   0  0  0  0  0  0  0  0  0  0  0  0
   -5.4680   -0.0083   -0.4437 H   0  0  0  0  0  0  0  0  0  0  0  0
   -3.7082   -1.3698    2.4328 H   0  0  0  0  0  0  0  0  0  0  0  0
   -4.0027    1.2493    1.7562 H   0  0  0  0  0  0  0  0  0  0  0  0
   -2.3970    0.5769    2.2405 H   0  0  0  0  0  0  0  0  0  0  0  0
   -2.1478    2.7189    1.1146 H   0  0  0  0  0  0  0  0  0  0  0  0
   -0.1783    3.1261   -0.0176 H   0  0  0  0  0  0  0  0  0  0  0  0
    0.8020    1.8296    1.7228 H   0  0  0  0  0  0  0  0  0  0  0  0
    1.6414    1.5157    3.9602 H   0  0  0  0  0  0  0  0  0  0  0  0
    6.8394   -1.0477    2.6235 H   0  0  0  0  0  0  0  0  0  0  0  0
    3.1903    0.5576   -1.6216 H   0  0  0  0  0  0  0  0  0  0  0  0
    8.7789   -0.8433    1.4757 H   0  0  0  0  0  0  0  0  0  0  0  0
   10.7006   -1.8396    0.3310 H   0  0  0  0  0  0  0  0  0  0  0  0
   10.6117   -3.4337   -2.9539 H   0  0  0  0  0  0  0  0  0  0  0  0
    8.1933   -2.9259   -2.9875 H   0  0  0  0  0  0  0  0  0  0  0  0
    6.2460   -1.9578   -1.8489 H   0  0  0  0  0  0  0  0  0  0  0  0
   -1.1903    1.7547   -2.5974 H   0  0  0  0  0  0  0  0  0  0  0  0
   -0.1841    4.3907   -2.0836 H   0  0  0  0  0  0  0  0  0  0  0  0
   -2.3595    4.1853   -1.0836 H   0  0  0  0  0  0  0  0  0  0  0  0
   -2.8612    4.2636   -3.2180 H   0  0  0  0  0  0  0  0  0  0  0  0
   -3.4539    1.3192   -1.3293 H   0  0  0  0  0  0  0  0  0  0  0  0
   -4.2491    3.5756    0.2520 H   0  0  0  0  0  0  0  0  0  0  0  0
   -2.9821   -2.9400    0.6013 H   0  0  0  0  0  0  0  0  0  0  0  0
   -5.4808   -3.3803    1.9258 H   0  0  0  0  0  0  0  0  0  0  0  0
   -4.1652   -2.1475   -1.3083 H   0  0  0  0  0  0  0  0  0  0  0  0
   -4.9773   -4.0409   -1.9966 H   0  0  0  0  0  0  0  0  0  0  0  0
   -6.8433   -2.7238    0.1364 H   0  0  0  0  0  0  0  0  0  0  0  0
   -7.1396   -2.7750   -2.0121 H   0  0  0  0  0  0  0  0  0  0  0  0
  1  2  1  0
  2  3  1  0
  3  4  1  0
  4  5  1  0
  5  6  1  0
  6  7  1  0
  7  8  1  0
  8  9  1  0
  9 10  1  0
 10 11  1  0
 11 12  2  0
 12 13  1  0
 13 14  1  0
 13 15  2  0
 15 16  1  0
 16 17  2  0
 16 18  1  0
 18 19  2  0
 19 20  1  0
 20 21  1  0
 21 22  2  0
 19 23  1  0
 23 24  2  0
 24 25  1  0
 25 26  2  0
 26 27  1  0
 26 28  1  0
 28 29  2  0
  9 30  1  0
 30 31  1  0
 30 32  1  0
 32 33  1  0
 32 34  1  0
 34 35  1  0
  4 36  1  0
 36 37  1  0
 36 38  1  0
 38 39  1  0
 38 40  1  0
 40 41  1  0
 40  2  1  0
 34  7  1  0
 22 11  1  0
 29 23  1  0
 21 15  1  0
  1 42  1  0
  1 43  1  0
  1 44  1  0
  2 45  1  6
  4 46  1  1
  6 47  1  0
  6 48  1  0
  7 49  1  1
  9 50  1  1
 12 51  1  0
 14 52  1  0
 18 53  1  0
 22 54  1  0
 24 55  1  0
 25 56  1  0
 27 57  1  0
 28 58  1  0
 29 59  1  0
 30 60  1  6
 31 61  1  0
 32 62  1  1
 33 63  1  0
 34 64  1  6
 35 65  1  0
 36 66  1  6
 37 67  1  0
 38 68  1  6
 39 69  1  0
 40 70  1  1
 41 71  1  0
M  END
>  <LIG_ID>  (133) 
132

>  <_smiles>  (133) 
C[C@H]1O[C@H](OC[C@H]2O[C@@H](OC3=CC(O)=C4C(=O)C=C(OC4=C3)C3=CC=C(O)C=C3)[C@H](O)[C@@H](O)[C@@H]2O)[C@@H](O)[C@@H](O)[C@@H]1O

>  <_name>  (133) 
Isorhoifolin

>  <_molecular_weight>  (133) 
578.519

>  <_formula>  (133) 
C27H30O14

>  <_logP>  (133) 
-1.0983000000000007

>  <_molecular_wt_calculated>  (133) 
578.5230000000015

>  <_havy_atom_count>  (133) 
41

>  <_hydrogen_acceptors>  (133) 
14

>  <_hydrogen_donors>  (133) 
8

>  <_rotatable_bonds>  (133) 
15

>  <_amide_bonds>  (133) 
0

>  <_ring_count>  (133) 
5

$$$$
Neodiosmin
     RDKit          3D

 75 79  0  0  0  0  0  0  0  0999 V2000
   11.1226    0.1330   -0.5858 C   0  0  0  0  0  0  0  0  0  0  0  0
    9.8607   -0.3776   -1.0035 O   0  0  0  0  0  0  0  0  0  0  0  0
    8.6339    0.2735   -0.7999 C   0  0  0  0  0  0  0  0  0  0  0  0
    7.4641   -0.3430   -1.2628 C   0  0  0  0  0  0  0  0  0  0  0  0
    7.5459   -1.5765   -1.9072 O   0  0  0  0  0  0  0  0  0  0  0  0
    6.2199    0.2763   -1.0792 C   0  0  0  0  0  0  0  0  0  0  0  0
    6.1257    1.5241   -0.4399 C   0  0  0  0  0  0  0  0  0  0  0  0
    7.3024    2.1325    0.0344 C   0  0  0  0  0  0  0  0  0  0  0  0
    8.5433    1.5163   -0.1467 C   0  0  0  0  0  0  0  0  0  0  0  0
    4.7922    2.1499   -0.2526 C   0  0  0  0  0  0  0  0  0  0  0  0
    4.6323    3.5387   -0.1533 C   0  0  0  0  0  0  0  0  0  0  0  0
    3.3558    4.0758    0.0190 C   0  0  0  0  0  0  0  0  0  0  0  0
    3.2512    5.3213    0.1624 O   0  0  0  0  0  0  0  0  0  0  0  0
    2.2302    3.2181    0.0548 C   0  0  0  0  0  0  0  0  0  0  0  0
    2.4854    1.8243   -0.0258 C   0  0  0  0  0  0  0  0  0  0  0  0
    3.7223    1.3649   -0.1827 O   0  0  0  0  0  0  0  0  0  0  0  0
    1.4396    0.9043    0.0679 C   0  0  0  0  0  0  0  0  0  0  0  0
    0.1268    1.3308    0.2566 C   0  0  0  0  0  0  0  0  0  0  0  0
   -0.8753    0.3552    0.3708 O   0  0  0  0  0  0  0  0  0  0  0  0
   -2.2512    0.6168    0.6590 C   0  0  0  0  0  0  0  0  0  0  0  0
   -2.3715    1.2762    1.9155 O   0  0  0  0  0  0  0  0  0  0  0  0
   -2.5128    0.4230    3.0506 C   0  0  0  0  0  0  0  0  0  0  0  0
   -1.8639    1.1378    4.2458 C   0  0  0  0  0  0  0  0  0  0  0  0
   -2.2504    0.5375    5.4513 O   0  0  0  0  0  0  0  0  0  0  0  0
   -1.9129   -1.0006    2.8468 C   0  0  0  0  0  0  0  0  0  0  0  0
   -2.0094   -1.7982    4.0031 O   0  0  0  0  0  0  0  0  0  0  0  0
   -2.5599   -1.7051    1.6246 C   0  0  0  0  0  0  0  0  0  0  0  0
   -3.5994   -2.5725    2.0090 O   0  0  0  0  0  0  0  0  0  0  0  0
   -3.0652   -0.6858    0.5722 C   0  0  0  0  0  0  0  0  0  0  0  0
   -2.9202   -1.2252   -0.7331 O   0  0  0  0  0  0  0  0  0  0  0  0
   -4.1305   -1.7960   -1.1923 C   0  0  0  0  0  0  0  0  0  0  0  0
   -5.0257   -0.7591   -1.5629 O   0  0  0  0  0  0  0  0  0  0  0  0
   -6.3392   -1.2480   -1.8228 C   0  0  0  0  0  0  0  0  0  0  0  0
   -7.1805   -1.2307   -0.5422 C   0  0  0  0  0  0  0  0  0  0  0  0
   -6.3658   -2.6426   -2.5192 C   0  0  0  0  0  0  0  0  0  0  0  0
   -7.5030   -2.7806   -3.3358 O   0  0  0  0  0  0  0  0  0  0  0  0
   -5.0654   -2.8403   -3.3273 C   0  0  0  0  0  0  0  0  0  0  0  0
   -5.0631   -4.0643   -4.0224 O   0  0  0  0  0  0  0  0  0  0  0  0
   -3.8206   -2.6947   -2.4137 C   0  0  0  0  0  0  0  0  0  0  0  0
   -3.3845   -3.9547   -1.9686 O   0  0  0  0  0  0  0  0  0  0  0  0
   -0.1445    2.7068    0.3167 C   0  0  0  0  0  0  0  0  0  0  0  0
    0.8788    3.6544    0.1892 C   0  0  0  0  0  0  0  0  0  0  0  0
    0.4857    4.9962    0.1796 O   0  0  0  0  0  0  0  0  0  0  0  0
   11.1394    0.2534    0.5180 H   0  0  0  0  0  0  0  0  0  0  0  0
   11.9178   -0.5834   -0.8770 H   0  0  0  0  0  0  0  0  0  0  0  0
   11.3230    1.1070   -1.0802 H   0  0  0  0  0  0  0  0  0  0  0  0
    6.7199   -2.0501   -2.2542 H   0  0  0  0  0  0  0  0  0  0  0  0
    5.3275   -0.2147   -1.4485 H   0  0  0  0  0  0  0  0  0  0  0  0
    7.2694    3.0720    0.5690 H   0  0  0  0  0  0  0  0  0  0  0  0
    9.4264    2.0125    0.2321 H   0  0  0  0  0  0  0  0  0  0  0  0
    5.4817    4.2063   -0.2207 H   0  0  0  0  0  0  0  0  0  0  0  0
    1.6524   -0.1565    0.0112 H   0  0  0  0  0  0  0  0  0  0  0  0
   -2.6500    1.2993   -0.1230 H   0  0  0  0  0  0  0  0  0  0  0  0
   -3.6006    0.3253    3.2647 H   0  0  0  0  0  0  0  0  0  0  0  0
   -2.1909    2.2021    4.2527 H   0  0  0  0  0  0  0  0  0  0  0  0
   -0.7553    1.1152    4.1434 H   0  0  0  0  0  0  0  0  0  0  0  0
   -1.7791    1.0340    6.1698 H   0  0  0  0  0  0  0  0  0  0  0  0
   -0.8282   -0.8754    2.6335 H   0  0  0  0  0  0  0  0  0  0  0  0
   -2.9483   -1.7634    4.3225 H   0  0  0  0  0  0  0  0  0  0  0  0
   -1.7691   -2.3321    1.1556 H   0  0  0  0  0  0  0  0  0  0  0  0
   -4.3199   -2.0212    2.4124 H   0  0  0  0  0  0  0  0  0  0  0  0
   -4.1202   -0.3954    0.8023 H   0  0  0  0  0  0  0  0  0  0  0  0
   -4.5770   -2.4394   -0.3958 H   0  0  0  0  0  0  0  0  0  0  0  0
   -6.8058   -0.5145   -2.5159 H   0  0  0  0  0  0  0  0  0  0  0  0
   -7.1665   -0.2130   -0.0977 H   0  0  0  0  0  0  0  0  0  0  0  0
   -8.2327   -1.4999   -0.7747 H   0  0  0  0  0  0  0  0  0  0  0  0
   -6.7851   -1.9491    0.2058 H   0  0  0  0  0  0  0  0  0  0  0  0
   -6.4106   -3.4398   -1.7435 H   0  0  0  0  0  0  0  0  0  0  0  0
   -7.4240   -2.1263   -4.0785 H   0  0  0  0  0  0  0  0  0  0  0  0
   -5.0188   -2.0298   -4.0892 H   0  0  0  0  0  0  0  0  0  0  0  0
   -5.2907   -4.7833   -3.3767 H   0  0  0  0  0  0  0  0  0  0  0  0
   -3.0144   -2.2233   -3.0248 H   0  0  0  0  0  0  0  0  0  0  0  0
   -2.4636   -3.8323   -1.6178 H   0  0  0  0  0  0  0  0  0  0  0  0
   -1.1596    3.0613    0.4319 H   0  0  0  0  0  0  0  0  0  0  0  0
    1.0490    5.7621   -0.1559 H   0  0  0  0  0  0  0  0  0  0  0  0
  1  2  1  0
  2  3  1  0
  3  4  2  0
  4  5  1  0
  4  6  1  0
  6  7  2  0
  7  8  1  0
  8  9  2  0
  7 10  1  0
 10 11  2  0
 11 12  1  0
 12 13  2  0
 12 14  1  0
 14 15  2  0
 15 16  1  0
 15 17  1  0
 17 18  2  0
 18 19  1  0
 19 20  1  0
 20 21  1  0
 21 22  1  0
 22 23  1  0
 23 24  1  0
 22 25  1  0
 25 26  1  0
 25 27  1  0
 27 28  1  0
 27 29  1  0
 29 30  1  0
 30 31  1  0
 31 32  1  0
 32 33  1  0
 33 34  1  0
 33 35  1  0
 35 36  1  0
 35 37  1  0
 37 38  1  0
 37 39  1  0
 39 40  1  0
 18 41  1  0
 41 42  2  0
 42 43  1  0
  9  3  1  0
 16 10  1  0
 29 20  1  0
 39 31  1  0
 42 14  1  0
  1 44  1  0
  1 45  1  0
  1 46  1  0
  5 47  1  0
  6 48  1  0
  8 49  1  0
  9 50  1  0
 11 51  1  0
 17 52  1  0
 20 53  1  0
 22 54  1  0
 23 55  1  0
 23 56  1  0
 24 57  1  0
 25 58  1  0
 26 59  1  0
 27 60  1  0
 28 61  1  0
 29 62  1  0
 31 63  1  0
 33 64  1  0
 34 65  1  0
 34 66  1  0
 34 67  1  0
 35 68  1  0
 36 69  1  0
 37 70  1  0
 38 71  1  0
 39 72  1  0
 40 73  1  0
 41 74  1  0
 43 75  1  0
M  END
>  <LIG_ID>  (134) 
133

>  <_smiles>  (134) 
COC1=C(O)C=C(C=C1)C1=CC(=O)C2=C(O1)C=C(OC1OC(CO)C(O)C(O)C1OC1OC(C)C(O)C(O)C1O)C=C2O

>  <_name>  (134) 
Neodiosmin

>  <_molecular_weight>  (134) 
608.545

>  <_formula>  (134) 
C28H32O15

>  <_logP>  (134) 
-1.0897000000000006

>  <_molecular_wt_calculated>  (134) 
608.5490000000016

>  <_havy_atom_count>  (134) 
43

>  <_hydrogen_acceptors>  (134) 
15

>  <_hydrogen_donors>  (134) 
8

>  <_rotatable_bonds>  (134) 
17

>  <_amide_bonds>  (134) 
0

>  <_ring_count>  (134) 
5

$$$$
Rhoifolin
     RDKit          3D

 71 75  0  0  0  0  0  0  0  0999 V2000
   -3.1392    2.4894   -1.4097 C   0  0  0  0  0  0  0  0  0  0  0  0
   -2.5401    2.6089   -0.0041 C   0  0  2  0  0  0  0  0  0  0  0  0
   -2.1741    1.3234    0.4882 O   0  0  0  0  0  0  0  0  0  0  0  0
   -3.2332    0.7043    1.1998 C   0  0  1  0  0  0  0  0  0  0  0  0
   -2.8974   -0.6438    1.4663 O   0  0  0  0  0  0  0  0  0  0  0  0
   -2.9166   -1.4293    0.2827 C   0  0  2  0  0  0  0  0  0  0  0  0
   -3.9971   -2.5169    0.4173 C   0  0  1  0  0  0  0  0  0  0  0  0
   -5.2742   -1.9334    0.3887 O   0  0  0  0  0  0  0  0  0  0  0  0
   -3.8779   -3.5313   -0.7360 C   0  0  2  0  0  0  0  0  0  0  0  0
   -4.7712   -4.6000   -0.5403 O   0  0  0  0  0  0  0  0  0  0  0  0
   -2.4127   -4.0270   -0.8652 C   0  0  1  0  0  0  0  0  0  0  0  0
   -2.2394   -4.9638   -2.0719 C   0  0  0  0  0  0  0  0  0  0  0  0
   -2.9316   -6.1691   -1.8851 O   0  0  0  0  0  0  0  0  0  0  0  0
   -1.5439   -2.9217   -1.0452 O   0  0  0  0  0  0  0  0  0  0  0  0
   -1.5422   -2.0957    0.1064 C   0  0  1  0  0  0  0  0  0  0  0  0
   -0.5608   -1.0739   -0.0587 O   0  0  0  0  0  0  0  0  0  0  0  0
    0.8232   -1.2896   -0.1364 C   0  0  0  0  0  0  0  0  0  0  0  0
    1.3974   -2.5697   -0.0363 C   0  0  0  0  0  0  0  0  0  0  0  0
    2.7872   -2.7401   -0.1212 C   0  0  0  0  0  0  0  0  0  0  0  0
    3.3261   -4.0235   -0.0205 O   0  0  0  0  0  0  0  0  0  0  0  0
    3.6227   -1.6145   -0.3068 C   0  0  0  0  0  0  0  0  0  0  0  0
    5.0257   -1.7027   -0.4069 C   0  0  0  0  0  0  0  0  0  0  0  0
    5.6207   -2.8123   -0.3409 O   0  0  0  0  0  0  0  0  0  0  0  0
    5.7778   -0.5412   -0.5879 C   0  0  0  0  0  0  0  0  0  0  0  0
    5.1247    0.7000   -0.6641 C   0  0  0  0  0  0  0  0  0  0  0  0
    3.7973    0.7471   -0.5757 O   0  0  0  0  0  0  0  0  0  0  0  0
    3.0382   -0.3304   -0.4035 C   0  0  0  0  0  0  0  0  0  0  0  0
    1.6519   -0.1803   -0.3183 C   0  0  0  0  0  0  0  0  0  0  0  0
    5.8721    1.9684   -0.8568 C   0  0  0  0  0  0  0  0  0  0  0  0
    5.2322    3.0628   -1.4670 C   0  0  0  0  0  0  0  0  0  0  0  0
    5.9110    4.2708   -1.6523 C   0  0  0  0  0  0  0  0  0  0  0  0
    7.2336    4.4080   -1.2232 C   0  0  0  0  0  0  0  0  0  0  0  0
    7.8974    5.6176   -1.4148 O   0  0  0  0  0  0  0  0  0  0  0  0
    7.8768    3.3304   -0.6024 C   0  0  0  0  0  0  0  0  0  0  0  0
    7.2020    2.1200   -0.4160 C   0  0  0  0  0  0  0  0  0  0  0  0
   -3.4612    1.4318    2.5422 C   0  0  2  0  0  0  0  0  0  0  0  0
   -4.7746    1.1742    2.9748 O   0  0  0  0  0  0  0  0  0  0  0  0
   -3.2114    2.9565    2.4050 C   0  0  2  0  0  0  0  0  0  0  0  0
   -4.0341    3.6694    3.2951 O   0  0  0  0  0  0  0  0  0  0  0  0
   -3.4603    3.4175    0.9597 C   0  0  1  0  0  0  0  0  0  0  0  0
   -3.1888    4.7915    0.8503 O   0  0  0  0  0  0  0  0  0  0  0  0
   -3.2862    3.4975   -1.8514 H   0  0  0  0  0  0  0  0  0  0  0  0
   -2.4476    1.9176   -2.0641 H   0  0  0  0  0  0  0  0  0  0  0  0
   -4.1170    1.9651   -1.3838 H   0  0  0  0  0  0  0  0  0  0  0  0
   -1.5902    3.1779   -0.1107 H   0  0  0  0  0  0  0  0  0  0  0  0
   -4.1856    0.7442    0.6151 H   0  0  0  0  0  0  0  0  0  0  0  0
   -3.1246   -0.8441   -0.6485 H   0  0  0  0  0  0  0  0  0  0  0  0
   -3.8484   -3.0572    1.3834 H   0  0  0  0  0  0  0  0  0  0  0  0
   -5.4407   -1.5594    1.2932 H   0  0  0  0  0  0  0  0  0  0  0  0
   -4.1597   -3.0173   -1.6822 H   0  0  0  0  0  0  0  0  0  0  0  0
   -4.4961   -5.0746    0.2875 H   0  0  0  0  0  0  0  0  0  0  0  0
   -2.1208   -4.5986    0.0475 H   0  0  0  0  0  0  0  0  0  0  0  0
   -2.6191   -4.4695   -2.9917 H   0  0  0  0  0  0  0  0  0  0  0  0
   -1.1565   -5.1724   -2.2313 H   0  0  0  0  0  0  0  0  0  0  0  0
   -2.4062   -6.7007   -1.2316 H   0  0  0  0  0  0  0  0  0  0  0  0
   -1.2922   -2.6788    1.0244 H   0  0  0  0  0  0  0  0  0  0  0  0
    0.7749   -3.4419    0.1077 H   0  0  0  0  0  0  0  0  0  0  0  0
    2.7399   -4.8394    0.1121 H   0  0  0  0  0  0  0  0  0  0  0  0
    6.8523   -0.6179   -0.6933 H   0  0  0  0  0  0  0  0  0  0  0  0
    1.2135    0.8076   -0.3940 H   0  0  0  0  0  0  0  0  0  0  0  0
    4.2089    2.9808   -1.8123 H   0  0  0  0  0  0  0  0  0  0  0  0
    5.4077    5.1017   -2.1302 H   0  0  0  0  0  0  0  0  0  0  0  0
    8.8562    5.7488   -1.1139 H   0  0  0  0  0  0  0  0  0  0  0  0
    8.8979    3.4316   -0.2571 H   0  0  0  0  0  0  0  0  0  0  0  0
    7.7172    1.3182    0.0951 H   0  0  0  0  0  0  0  0  0  0  0  0
   -2.7328    1.0309    3.2882 H   0  0  0  0  0  0  0  0  0  0  0  0
   -4.7724    1.2366    3.9658 H   0  0  0  0  0  0  0  0  0  0  0  0
   -2.1393    3.1494    2.6532 H   0  0  0  0  0  0  0  0  0  0  0  0
   -3.5999    4.5482    3.4526 H   0  0  0  0  0  0  0  0  0  0  0  0
   -4.5348    3.2276    0.7223 H   0  0  0  0  0  0  0  0  0  0  0  0
   -3.6345    5.1064    0.0213 H   0  0  0  0  0  0  0  0  0  0  0  0
  1  2  1  0
  2  3  1  0
  3  4  1  0
  4  5  1  0
  5  6  1  0
  6  7  1  0
  7  8  1  0
  7  9  1  0
  9 10  1  0
  9 11  1  0
 11 12  1  0
 12 13  1  0
 11 14  1  0
 14 15  1  0
 15 16  1  0
 16 17  1  0
 17 18  2  0
 18 19  1  0
 19 20  1  0
 19 21  2  0
 21 22  1  0
 22 23  2  0
 22 24  1  0
 24 25  2  0
 25 26  1  0
 26 27  1  0
 27 28  2  0
 25 29  1  0
 29 30  2  0
 30 31  1  0
 31 32  2  0
 32 33  1  0
 32 34  1  0
 34 35  2  0
  4 36  1  0
 36 37  1  0
 36 38  1  0
 38 39  1  0
 38 40  1  0
 40 41  1  0
 40  2  1  0
 15  6  1  0
 28 17  1  0
 35 29  1  0
 27 21  1  0
  1 42  1  0
  1 43  1  0
  1 44  1  0
  2 45  1  6
  4 46  1  6
  6 47  1  6
  7 48  1  1
  8 49  1  0
  9 50  1  6
 10 51  1  0
 11 52  1  1
 12 53  1  0
 12 54  1  0
 13 55  1  0
 15 56  1  1
 18 57  1  0
 20 58  1  0
 24 59  1  0
 28 60  1  0
 30 61  1  0
 31 62  1  0
 33 63  1  0
 34 64  1  0
 35 65  1  0
 36 66  1  1
 37 67  1  0
 38 68  1  1
 39 69  1  0
 40 70  1  6
 41 71  1  0
M  END
>  <LIG_ID>  (135) 
134

>  <_smiles>  (135) 
C[C@@H]1O[C@@H](O[C@@H]2[C@@H](O)[C@H](O)[C@@H](CO)O[C@H]2OC2=CC(O)=C3C(=O)C=C(OC3=C2)C2=CC=C(O)C=C2)[C@H](O)[C@H](O)[C@H]1O

>  <_name>  (135) 
Rhoifolin

>  <_molecular_weight>  (135) 
578.519

>  <_formula>  (135) 
C27H30O14

>  <_logP>  (135) 
-1.098300000000001

>  <_molecular_wt_calculated>  (135) 
578.5230000000015

>  <_havy_atom_count>  (135) 
41

>  <_hydrogen_acceptors>  (135) 
14

>  <_hydrogen_donors>  (135) 
8

>  <_rotatable_bonds>  (135) 
15

>  <_amide_bonds>  (135) 
0

>  <_ring_count>  (135) 
5

$$$$
Sinensetin
     RDKit          3D

 47 49  0  0  0  0  0  0  0  0999 V2000
    7.0100   -1.1310   -2.0211 C   0  0  0  0  0  0  0  0  0  0  0  0
    6.4662   -0.6149   -0.8105 O   0  0  0  0  0  0  0  0  0  0  0  0
    5.1014   -0.3667   -0.5940 C   0  0  0  0  0  0  0  0  0  0  0  0
    4.7056    0.1432    0.6514 C   0  0  0  0  0  0  0  0  0  0  0  0
    5.6958    0.3725    1.6204 O   0  0  0  0  0  0  0  0  0  0  0  0
    5.4475    0.8887    2.9242 C   0  0  0  0  0  0  0  0  0  0  0  0
    3.3430    0.4056    0.8974 C   0  0  0  0  0  0  0  0  0  0  0  0
    2.3742    0.1701   -0.0959 C   0  0  0  0  0  0  0  0  0  0  0  0
    2.7837   -0.3547   -1.3310 C   0  0  0  0  0  0  0  0  0  0  0  0
    4.1314   -0.6163   -1.5813 C   0  0  0  0  0  0  0  0  0  0  0  0
    0.9323    0.4313    0.1429 C   0  0  0  0  0  0  0  0  0  0  0  0
    0.4966    1.4236    1.0325 C   0  0  0  0  0  0  0  0  0  0  0  0
   -0.8711    1.6266    1.2170 C   0  0  0  0  0  0  0  0  0  0  0  0
   -1.2443    2.5242    2.0197 O   0  0  0  0  0  0  0  0  0  0  0  0
   -1.8020    0.8343    0.5045 C   0  0  0  0  0  0  0  0  0  0  0  0
   -3.2073    0.9784    0.6391 C   0  0  0  0  0  0  0  0  0  0  0  0
   -3.6808    1.9599    1.5366 O   0  0  0  0  0  0  0  0  0  0  0  0
   -5.0340    2.2850    1.8359 C   0  0  0  0  0  0  0  0  0  0  0  0
   -4.0773    0.1432   -0.1210 C   0  0  0  0  0  0  0  0  0  0  0  0
   -5.4669    0.3104    0.0351 O   0  0  0  0  0  0  0  0  0  0  0  0
   -6.5067   -0.4098   -0.6182 C   0  0  0  0  0  0  0  0  0  0  0  0
   -3.5262   -0.8233   -1.0048 C   0  0  0  0  0  0  0  0  0  0  0  0
   -4.3733   -1.6510   -1.7597 O   0  0  0  0  0  0  0  0  0  0  0  0
   -3.9415   -2.6527   -2.6758 C   0  0  0  0  0  0  0  0  0  0  0  0
   -2.1328   -0.9436   -1.1168 C   0  0  0  0  0  0  0  0  0  0  0  0
   -1.2801   -0.1336   -0.3781 C   0  0  0  0  0  0  0  0  0  0  0  0
    0.0328   -0.2896   -0.5199 O   0  0  0  0  0  0  0  0  0  0  0  0
    6.5865   -2.1356   -2.2323 H   0  0  0  0  0  0  0  0  0  0  0  0
    6.7934   -0.4394   -2.8625 H   0  0  0  0  0  0  0  0  0  0  0  0
    8.1099   -1.2251   -1.9131 H   0  0  0  0  0  0  0  0  0  0  0  0
    4.7804    0.2016    3.4864 H   0  0  0  0  0  0  0  0  0  0  0  0
    6.4096    0.9736    3.4694 H   0  0  0  0  0  0  0  0  0  0  0  0
    4.9882    1.8975    2.8547 H   0  0  0  0  0  0  0  0  0  0  0  0
    3.0363    0.7668    1.8678 H   0  0  0  0  0  0  0  0  0  0  0  0
    2.0599   -0.5521   -2.1124 H   0  0  0  0  0  0  0  0  0  0  0  0
    4.4087   -1.0127   -2.5484 H   0  0  0  0  0  0  0  0  0  0  0  0
    1.2019    2.0540    1.5591 H   0  0  0  0  0  0  0  0  0  0  0  0
   -5.5527    1.4090    2.2787 H   0  0  0  0  0  0  0  0  0  0  0  0
   -5.5554    2.6451    0.9243 H   0  0  0  0  0  0  0  0  0  0  0  0
   -5.0466    3.1042    2.5836 H   0  0  0  0  0  0  0  0  0  0  0  0
   -6.4540   -0.2528   -1.7159 H   0  0  0  0  0  0  0  0  0  0  0  0
   -6.4490   -1.4885   -0.3617 H   0  0  0  0  0  0  0  0  0  0  0  0
   -7.4842   -0.0245   -0.2630 H   0  0  0  0  0  0  0  0  0  0  0  0
   -3.3423   -3.4230   -2.1458 H   0  0  0  0  0  0  0  0  0  0  0  0
   -3.3442   -2.1933   -3.4914 H   0  0  0  0  0  0  0  0  0  0  0  0
   -4.8315   -3.1420   -3.1216 H   0  0  0  0  0  0  0  0  0  0  0  0
   -1.6913   -1.6727   -1.7828 H   0  0  0  0  0  0  0  0  0  0  0  0
  1  2  1  0
  2  3  1  0
  3  4  2  0
  4  5  1  0
  5  6  1  0
  4  7  1  0
  7  8  2  0
  8  9  1  0
  9 10  2  0
  8 11  1  0
 11 12  2  0
 12 13  1  0
 13 14  2  0
 13 15  1  0
 15 16  2  0
 16 17  1  0
 17 18  1  0
 16 19  1  0
 19 20  1  0
 20 21  1  0
 19 22  2  0
 22 23  1  0
 23 24  1  0
 22 25  1  0
 25 26  2  0
 26 27  1  0
 10  3  1  0
 27 11  1  0
 26 15  1  0
  1 28  1  0
  1 29  1  0
  1 30  1  0
  6 31  1  0
  6 32  1  0
  6 33  1  0
  7 34  1  0
  9 35  1  0
 10 36  1  0
 12 37  1  0
 18 38  1  0
 18 39  1  0
 18 40  1  0
 21 41  1  0
 21 42  1  0
 21 43  1  0
 24 44  1  0
 24 45  1  0
 24 46  1  0
 25 47  1  0
M  END
>  <LIG_ID>  (136) 
135

>  <_smiles>  (136) 
COC1=C(OC)C=C(C=C1)C1=CC(=O)C2=C(OC)C(OC)=C(OC)C=C2O1

>  <_name>  (136) 
Sinensetin

>  <_molecular_weight>  (136) 
372.369

>  <_formula>  (136) 
C20H20O7

>  <_logP>  (136) 
3.503000000000003

>  <_molecular_wt_calculated>  (136) 
372.37299999999976

>  <_havy_atom_count>  (136) 
27

>  <_hydrogen_acceptors>  (136) 
7

>  <_hydrogen_donors>  (136) 
0

>  <_rotatable_bonds>  (136) 
11

>  <_amide_bonds>  (136) 
0

>  <_ring_count>  (136) 
3

$$$$
Nobiletin
     RDKit          3D

 51 53  0  0  0  0  0  0  0  0999 V2000
    7.0077    1.7485   -2.3494 C   0  0  0  0  0  0  0  0  0  0  0  0
    6.5866    1.1794   -1.1139 O   0  0  0  0  0  0  0  0  0  0  0  0
    5.2466    0.9734   -0.7490 C   0  0  0  0  0  0  0  0  0  0  0  0
    4.9768    0.4006    0.5028 C   0  0  0  0  0  0  0  0  0  0  0  0
    6.0628    0.0564    1.3238 O   0  0  0  0  0  0  0  0  0  0  0  0
    5.9456   -0.5275    2.6173 C   0  0  0  0  0  0  0  0  0  0  0  0
    3.6416    0.1845    0.8985 C   0  0  0  0  0  0  0  0  0  0  0  0
    2.5739    0.5448    0.0553 C   0  0  0  0  0  0  0  0  0  0  0  0
    2.8602    1.1022   -1.2001 C   0  0  0  0  0  0  0  0  0  0  0  0
    4.1800    1.3194   -1.5979 C   0  0  0  0  0  0  0  0  0  0  0  0
    1.1595    0.3192    0.4466 C   0  0  0  0  0  0  0  0  0  0  0  0
    0.7526    0.3188    1.7884 C   0  0  0  0  0  0  0  0  0  0  0  0
   -0.5902    0.1035    2.0957 C   0  0  0  0  0  0  0  0  0  0  0  0
   -0.9442    0.1094    3.3057 O   0  0  0  0  0  0  0  0  0  0  0  0
   -1.5214   -0.1045    1.0547 C   0  0  0  0  0  0  0  0  0  0  0  0
   -1.0378   -0.0830   -0.2703 C   0  0  0  0  0  0  0  0  0  0  0  0
    0.2549    0.1261   -0.5092 O   0  0  0  0  0  0  0  0  0  0  0  0
   -1.8973   -0.2901   -1.3562 C   0  0  0  0  0  0  0  0  0  0  0  0
   -1.3021   -0.2736   -2.6342 O   0  0  0  0  0  0  0  0  0  0  0  0
   -1.9541   -0.4511   -3.8869 C   0  0  0  0  0  0  0  0  0  0  0  0
   -3.2824   -0.4973   -1.1318 C   0  0  0  0  0  0  0  0  0  0  0  0
   -4.1168   -0.7083   -2.2459 O   0  0  0  0  0  0  0  0  0  0  0  0
   -5.4965   -1.0586   -2.2350 C   0  0  0  0  0  0  0  0  0  0  0  0
   -3.7791   -0.4717    0.1973 C   0  0  0  0  0  0  0  0  0  0  0  0
   -5.1546   -0.5563    0.4323 O   0  0  0  0  0  0  0  0  0  0  0  0
   -5.8910    0.4945    1.0509 C   0  0  0  0  0  0  0  0  0  0  0  0
   -2.8916   -0.3421    1.2869 C   0  0  0  0  0  0  0  0  0  0  0  0
   -3.3626   -0.4555    2.6008 O   0  0  0  0  0  0  0  0  0  0  0  0
   -3.9599   -1.6491    3.0972 C   0  0  0  0  0  0  0  0  0  0  0  0
    6.6625    1.1195   -3.1970 H   0  0  0  0  0  0  0  0  0  0  0  0
    8.1159    1.7930   -2.3687 H   0  0  0  0  0  0  0  0  0  0  0  0
    6.6088    2.7799   -2.4505 H   0  0  0  0  0  0  0  0  0  0  0  0
    5.4350   -1.5112    2.5475 H   0  0  0  0  0  0  0  0  0  0  0  0
    6.9602   -0.6839    3.0373 H   0  0  0  0  0  0  0  0  0  0  0  0
    5.3820    0.1501    3.2928 H   0  0  0  0  0  0  0  0  0  0  0  0
    3.4368   -0.2871    1.8482 H   0  0  0  0  0  0  0  0  0  0  0  0
    2.0594    1.3833   -1.8733 H   0  0  0  0  0  0  0  0  0  0  0  0
    4.3600    1.7586   -2.5695 H   0  0  0  0  0  0  0  0  0  0  0  0
    1.4559    0.5097    2.5890 H   0  0  0  0  0  0  0  0  0  0  0  0
   -2.7090    0.3476   -4.0451 H   0  0  0  0  0  0  0  0  0  0  0  0
   -2.4183   -1.4582   -3.9406 H   0  0  0  0  0  0  0  0  0  0  0  0
   -1.1993   -0.3765   -4.6962 H   0  0  0  0  0  0  0  0  0  0  0  0
   -5.6581   -1.9755   -1.6298 H   0  0  0  0  0  0  0  0  0  0  0  0
   -6.1056   -0.2129   -1.8541 H   0  0  0  0  0  0  0  0  0  0  0  0
   -5.8189   -1.2690   -3.2752 H   0  0  0  0  0  0  0  0  0  0  0  0
   -5.7630    1.4345    0.4737 H   0  0  0  0  0  0  0  0  0  0  0  0
   -5.5587    0.6544    2.0959 H   0  0  0  0  0  0  0  0  0  0  0  0
   -6.9668    0.2250    1.0600 H   0  0  0  0  0  0  0  0  0  0  0  0
   -4.9021   -1.8774    2.5602 H   0  0  0  0  0  0  0  0  0  0  0  0
   -3.2539   -2.4987    2.9835 H   0  0  0  0  0  0  0  0  0  0  0  0
   -4.1902   -1.5176    4.1741 H   0  0  0  0  0  0  0  0  0  0  0  0
  1  2  1  0
  2  3  1  0
  3  4  2  0
  4  5  1  0
  5  6  1  0
  4  7  1  0
  7  8  2  0
  8  9  1  0
  9 10  2  0
  8 11  1  0
 11 12  2  0
 12 13  1  0
 13 14  2  0
 13 15  1  0
 15 16  2  0
 16 17  1  0
 16 18  1  0
 18 19  1  0
 19 20  1  0
 18 21  2  0
 21 22  1  0
 22 23  1  0
 21 24  1  0
 24 25  1  0
 25 26  1  0
 24 27  2  0
 27 28  1  0
 28 29  1  0
 10  3  1  0
 17 11  1  0
 27 15  1  0
  1 30  1  0
  1 31  1  0
  1 32  1  0
  6 33  1  0
  6 34  1  0
  6 35  1  0
  7 36  1  0
  9 37  1  0
 10 38  1  0
 12 39  1  0
 20 40  1  0
 20 41  1  0
 20 42  1  0
 23 43  1  0
 23 44  1  0
 23 45  1  0
 26 46  1  0
 26 47  1  0
 26 48  1  0
 29 49  1  0
 29 50  1  0
 29 51  1  0
M  END
>  <LIG_ID>  (137) 
136

>  <_smiles>  (137) 
COC1=C(OC)C=C(C=C1)C1=CC(=O)C2=C(O1)C(OC)=C(OC)C(OC)=C2OC

>  <_name>  (137) 
Nobiletin

>  <_molecular_weight>  (137) 
402.395

>  <_formula>  (137) 
C21H22O8

>  <_logP>  (137) 
3.5116000000000023

>  <_molecular_wt_calculated>  (137) 
402.3989999999998

>  <_havy_atom_count>  (137) 
29

>  <_hydrogen_acceptors>  (137) 
8

>  <_hydrogen_donors>  (137) 
0

>  <_rotatable_bonds>  (137) 
13

>  <_amide_bonds>  (137) 
0

>  <_ring_count>  (137) 
3

$$$$
Tangeretin
     RDKit          3D

 47 49  0  0  0  0  0  0  0  0999 V2000
    7.8492   -0.4605   -0.8716 C   0  0  0  0  0  0  0  0  0  0  0  0
    6.7206   -1.2935   -0.6272 O   0  0  0  0  0  0  0  0  0  0  0  0
    5.4311   -0.8176   -0.3468 C   0  0  0  0  0  0  0  0  0  0  0  0
    4.4117   -1.7493   -0.1264 C   0  0  0  0  0  0  0  0  0  0  0  0
    3.1103   -1.3262    0.1568 C   0  0  0  0  0  0  0  0  0  0  0  0
    2.8044    0.0424    0.2319 C   0  0  0  0  0  0  0  0  0  0  0  0
    3.8285    0.9800    0.0020 C   0  0  0  0  0  0  0  0  0  0  0  0
    5.1300    0.5552   -0.2821 C   0  0  0  0  0  0  0  0  0  0  0  0
    1.4143    0.4719    0.5195 C   0  0  0  0  0  0  0  0  0  0  0  0
    1.1464    1.6530    1.2187 C   0  0  0  0  0  0  0  0  0  0  0  0
   -0.1749    2.0184    1.4559 C   0  0  0  0  0  0  0  0  0  0  0  0
   -0.4022    3.0839    2.0904 O   0  0  0  0  0  0  0  0  0  0  0  0
   -1.2248    1.1959    0.9885 C   0  0  0  0  0  0  0  0  0  0  0  0
   -0.8810    0.0096    0.2991 C   0  0  0  0  0  0  0  0  0  0  0  0
    0.4032   -0.2880    0.1073 O   0  0  0  0  0  0  0  0  0  0  0  0
   -1.8934   -0.8495   -0.1974 C   0  0  0  0  0  0  0  0  0  0  0  0
   -1.5941   -2.0318   -0.9012 O   0  0  0  0  0  0  0  0  0  0  0  0
   -0.3191   -2.6424   -1.0641 C   0  0  0  0  0  0  0  0  0  0  0  0
   -3.2599   -0.5149    0.0083 C   0  0  0  0  0  0  0  0  0  0  0  0
   -4.3162   -1.3199   -0.4630 O   0  0  0  0  0  0  0  0  0  0  0  0
   -4.2297   -2.5458   -1.1818 C   0  0  0  0  0  0  0  0  0  0  0  0
   -3.5945    0.6686    0.7152 C   0  0  0  0  0  0  0  0  0  0  0  0
   -4.9186    1.0479    1.0175 O   0  0  0  0  0  0  0  0  0  0  0  0
   -6.1151    0.3480    0.6943 C   0  0  0  0  0  0  0  0  0  0  0  0
   -2.5819    1.5253    1.1738 C   0  0  0  0  0  0  0  0  0  0  0  0
   -2.9318    2.7058    1.8415 O   0  0  0  0  0  0  0  0  0  0  0  0
   -3.5583    3.7976    1.1763 C   0  0  0  0  0  0  0  0  0  0  0  0
    8.0534    0.1758    0.0154 H   0  0  0  0  0  0  0  0  0  0  0  0
    7.6688    0.1746   -1.7646 H   0  0  0  0  0  0  0  0  0  0  0  0
    8.7361   -1.0985   -1.0629 H   0  0  0  0  0  0  0  0  0  0  0  0
    4.6300   -2.8088   -0.1729 H   0  0  0  0  0  0  0  0  0  0  0  0
    2.3473   -2.0711    0.3355 H   0  0  0  0  0  0  0  0  0  0  0  0
    3.6232    2.0423    0.0171 H   0  0  0  0  0  0  0  0  0  0  0  0
    5.8923    1.3023   -0.4560 H   0  0  0  0  0  0  0  0  0  0  0  0
    1.9490    2.2746    1.5961 H   0  0  0  0  0  0  0  0  0  0  0  0
    0.3450   -1.9980   -1.6771 H   0  0  0  0  0  0  0  0  0  0  0  0
    0.1280   -2.8586   -0.0720 H   0  0  0  0  0  0  0  0  0  0  0  0
   -0.4505   -3.6043   -1.6002 H   0  0  0  0  0  0  0  0  0  0  0  0
   -3.7102   -3.3151   -0.5727 H   0  0  0  0  0  0  0  0  0  0  0  0
   -3.7201   -2.3877   -2.1554 H   0  0  0  0  0  0  0  0  0  0  0  0
   -5.2567   -2.9097   -1.3888 H   0  0  0  0  0  0  0  0  0  0  0  0
   -6.2358    0.2787   -0.4071 H   0  0  0  0  0  0  0  0  0  0  0  0
   -6.1126   -0.6582    1.1637 H   0  0  0  0  0  0  0  0  0  0  0  0
   -6.9793    0.9137    1.0986 H   0  0  0  0  0  0  0  0  0  0  0  0
   -4.5617    3.5119    0.8015 H   0  0  0  0  0  0  0  0  0  0  0  0
   -2.9271    4.1335    0.3265 H   0  0  0  0  0  0  0  0  0  0  0  0
   -3.6733    4.6387    1.8901 H   0  0  0  0  0  0  0  0  0  0  0  0
  1  2  1  0
  2  3  1  0
  3  4  2  0
  4  5  1  0
  5  6  2  0
  6  7  1  0
  7  8  2  0
  6  9  1  0
  9 10  2  0
 10 11  1  0
 11 12  2  0
 11 13  1  0
 13 14  2  0
 14 15  1  0
 14 16  1  0
 16 17  1  0
 17 18  1  0
 16 19  2  0
 19 20  1  0
 20 21  1  0
 19 22  1  0
 22 23  1  0
 23 24  1  0
 22 25  2  0
 25 26  1  0
 26 27  1  0
  8  3  1  0
 15  9  1  0
 25 13  1  0
  1 28  1  0
  1 29  1  0
  1 30  1  0
  4 31  1  0
  5 32  1  0
  7 33  1  0
  8 34  1  0
 10 35  1  0
 18 36  1  0
 18 37  1  0
 18 38  1  0
 21 39  1  0
 21 40  1  0
 21 41  1  0
 24 42  1  0
 24 43  1  0
 24 44  1  0
 27 45  1  0
 27 46  1  0
 27 47  1  0
M  END
>  <LIG_ID>  (138) 
137

>  <_smiles>  (138) 
COC1=CC=C(C=C1)C1=CC(=O)C2=C(O1)C(OC)=C(OC)C(OC)=C2OC

>  <_name>  (138) 
Tangeretin

>  <_molecular_weight>  (138) 
372.369

>  <_formula>  (138) 
C20H20O7

>  <_logP>  (138) 
3.503000000000003

>  <_molecular_wt_calculated>  (138) 
372.37299999999976

>  <_havy_atom_count>  (138) 
27

>  <_hydrogen_acceptors>  (138) 
7

>  <_hydrogen_donors>  (138) 
0

>  <_rotatable_bonds>  (138) 
11

>  <_amide_bonds>  (138) 
0

>  <_ring_count>  (138) 
3

$$$$
Luteolin 7-O-diglucuronide
     RDKit          3D

 71 75  0  0  0  0  0  0  0  0999 V2000
   -6.0109    0.5837   -0.4065 C   0  0  2  0  0  0  0  0  0  0  0  0
   -4.8520   -0.2413   -0.4953 O   0  0  0  0  0  0  0  0  0  0  0  0
   -3.6381    0.0829    0.1189 C   0  0  0  0  0  0  0  0  0  0  0  0
   -3.5201    1.1468    0.7876 O   0  0  0  0  0  0  0  0  0  0  0  0
   -2.4891   -0.8757    0.0241 C   0  0  1  0  0  0  0  0  0  0  0  0
   -1.2754   -0.1530   -0.0401 O   0  0  0  0  0  0  0  0  0  0  0  0
   -0.2035   -0.9853   -0.4650 C   0  0  1  0  0  0  0  0  0  0  0  0
    1.0128   -0.2945   -0.1690 O   0  0  0  0  0  0  0  0  0  0  0  0
    2.2838   -0.5924   -0.6896 C   0  0  0  0  0  0  0  0  0  0  0  0
    2.4937   -1.5634   -1.6817 C   0  0  0  0  0  0  0  0  0  0  0  0
    3.7754   -1.8243   -2.1825 C   0  0  0  0  0  0  0  0  0  0  0  0
    3.8601   -2.7470   -3.2295 O   0  0  0  0  0  0  0  0  0  0  0  0
    4.8985   -1.1370   -1.6363 C   0  0  0  0  0  0  0  0  0  0  0  0
    6.2470   -1.3985   -1.9771 C   0  0  0  0  0  0  0  0  0  0  0  0
    6.5690   -2.3321   -2.7568 O   0  0  0  0  0  0  0  0  0  0  0  0
    7.2664   -0.6319   -1.4107 C   0  0  0  0  0  0  0  0  0  0  0  0
    6.9466    0.3699   -0.4841 C   0  0  0  0  0  0  0  0  0  0  0  0
    5.6766    0.5568   -0.1398 O   0  0  0  0  0  0  0  0  0  0  0  0
    4.6684   -0.1401   -0.6535 C   0  0  0  0  0  0  0  0  0  0  0  0
    3.3748    0.1231   -0.1991 C   0  0  0  0  0  0  0  0  0  0  0  0
    7.9906    1.2155    0.1481 C   0  0  0  0  0  0  0  0  0  0  0  0
    7.7531    1.7753    1.4157 C   0  0  0  0  0  0  0  0  0  0  0  0
    8.7161    2.5807    2.0288 C   0  0  0  0  0  0  0  0  0  0  0  0
    9.9283    2.8485    1.3814 C   0  0  0  0  0  0  0  0  0  0  0  0
   10.8920    3.6503    1.9903 O   0  0  0  0  0  0  0  0  0  0  0  0
   10.1729    2.3103    0.1126 C   0  0  0  0  0  0  0  0  0  0  0  0
   11.3763    2.5881   -0.5337 O   0  0  0  0  0  0  0  0  0  0  0  0
    9.2073    1.5002   -0.5027 C   0  0  0  0  0  0  0  0  0  0  0  0
   -0.1972   -2.3854    0.2339 C   0  0  2  0  0  0  0  0  0  0  0  0
   -0.7166   -3.3612   -0.6341 O   0  0  0  0  0  0  0  0  0  0  0  0
   -1.0404   -2.3616    1.5253 C   0  0  1  0  0  0  0  0  0  0  0  0
   -0.4066   -1.5487    2.4820 O   0  0  0  0  0  0  0  0  0  0  0  0
   -2.4676   -1.8136    1.2564 C   0  0  2  0  0  0  0  0  0  0  0  0
   -3.3968   -2.8589    1.1030 O   0  0  0  0  0  0  0  0  0  0  0  0
   -6.4452    0.6221    0.9425 O   0  0  0  0  0  0  0  0  0  0  0  0
   -7.5264    1.5268    1.0930 C   0  0  2  0  0  0  0  0  0  0  0  0
   -7.8462    1.6483    2.5536 C   0  0  0  0  0  0  0  0  0  0  0  0
   -8.0751    2.9027    3.1107 O   0  0  0  0  0  0  0  0  0  0  0  0
   -7.9397    0.6160    3.2712 O   0  0  0  0  0  0  0  0  0  0  0  0
   -8.7639    1.0281    0.3119 C   0  0  1  0  0  0  0  0  0  0  0  0
   -9.8085    1.9641    0.4026 O   0  0  0  0  0  0  0  0  0  0  0  0
   -8.3920    0.8367   -1.1701 C   0  0  2  0  0  0  0  0  0  0  0  0
   -9.4567    0.2549   -1.8814 O   0  0  0  0  0  0  0  0  0  0  0  0
   -7.1093   -0.0086   -1.3037 C   0  0  1  0  0  0  0  0  0  0  0  0
   -6.6694   -0.0093   -2.6371 O   0  0  0  0  0  0  0  0  0  0  0  0
   -5.7410    1.6046   -0.7681 H   0  0  0  0  0  0  0  0  0  0  0  0
   -2.6344   -1.4649   -0.9126 H   0  0  0  0  0  0  0  0  0  0  0  0
   -0.2859   -1.1013   -1.5687 H   0  0  0  0  0  0  0  0  0  0  0  0
    1.6628   -2.1080   -2.1036 H   0  0  0  0  0  0  0  0  0  0  0  0
    4.6436   -2.8342   -3.8585 H   0  0  0  0  0  0  0  0  0  0  0  0
    8.2960   -0.8501   -1.6647 H   0  0  0  0  0  0  0  0  0  0  0  0
    3.2176    0.8824    0.5575 H   0  0  0  0  0  0  0  0  0  0  0  0
    6.8255    1.5800    1.9397 H   0  0  0  0  0  0  0  0  0  0  0  0
    8.5188    2.9965    3.0087 H   0  0  0  0  0  0  0  0  0  0  0  0
   10.7426    4.0546    2.9075 H   0  0  0  0  0  0  0  0  0  0  0  0
   11.5836    2.2147   -1.4526 H   0  0  0  0  0  0  0  0  0  0  0  0
    9.4049    1.1200   -1.4960 H   0  0  0  0  0  0  0  0  0  0  0  0
    0.8442   -2.6722    0.5127 H   0  0  0  0  0  0  0  0  0  0  0  0
    0.0069   -3.6018   -1.2689 H   0  0  0  0  0  0  0  0  0  0  0  0
   -1.1208   -3.3988    1.9294 H   0  0  0  0  0  0  0  0  0  0  0  0
    0.3595   -2.0681    2.8419 H   0  0  0  0  0  0  0  0  0  0  0  0
   -2.7790   -1.2365    2.1567 H   0  0  0  0  0  0  0  0  0  0  0  0
   -3.1116   -3.4086    0.3279 H   0  0  0  0  0  0  0  0  0  0  0  0
   -7.2364    2.5406    0.7288 H   0  0  0  0  0  0  0  0  0  0  0  0
   -8.3055    3.0009    4.0922 H   0  0  0  0  0  0  0  0  0  0  0  0
   -9.0870    0.0427    0.7272 H   0  0  0  0  0  0  0  0  0  0  0  0
  -10.3071    1.7632    1.2372 H   0  0  0  0  0  0  0  0  0  0  0  0
   -8.1961    1.8388   -1.6140 H   0  0  0  0  0  0  0  0  0  0  0  0
   -9.6212   -0.6454   -1.4961 H   0  0  0  0  0  0  0  0  0  0  0  0
   -7.3084   -1.0534   -0.9651 H   0  0  0  0  0  0  0  0  0  0  0  0
   -7.2348   -0.6634   -3.1251 H   0  0  0  0  0  0  0  0  0  0  0  0
  1  2  1  0
  2  3  1  0
  3  4  2  0
  3  5  1  0
  5  6  1  0
  6  7  1  0
  7  8  1  0
  8  9  1  0
  9 10  2  0
 10 11  1  0
 11 12  1  0
 11 13  2  0
 13 14  1  0
 14 15  2  0
 14 16  1  0
 16 17  2  0
 17 18  1  0
 18 19  1  0
 19 20  2  0
 17 21  1  0
 21 22  2  0
 22 23  1  0
 23 24  2  0
 24 25  1  0
 24 26  1  0
 26 27  1  0
 26 28  2  0
  7 29  1  0
 29 30  1  0
 29 31  1  0
 31 32  1  0
 31 33  1  0
 33 34  1  0
  1 35  1  0
 35 36  1  0
 36 37  1  0
 37 38  1  0
 37 39  2  0
 36 40  1  0
 40 41  1  0
 40 42  1  0
 42 43  1  0
 42 44  1  0
 44 45  1  0
 44  1  1  0
 33  5  1  0
 20  9  1  0
 28 21  1  0
 19 13  1  0
  1 46  1  6
  5 47  1  6
  7 48  1  6
 10 49  1  0
 12 50  1  0
 16 51  1  0
 20 52  1  0
 22 53  1  0
 23 54  1  0
 25 55  1  0
 27 56  1  0
 28 57  1  0
 29 58  1  1
 30 59  1  0
 31 60  1  1
 32 61  1  0
 33 62  1  1
 34 63  1  0
 36 64  1  6
 38 65  1  0
 40 66  1  1
 41 67  1  0
 42 68  1  6
 43 69  1  0
 44 70  1  1
 45 71  1  0
M  END
>  <LIG_ID>  (139) 
138

>  <_smiles>  (139) 
[H][C@@]1(OC(=O)[C@@]2([H])O[C@@]([H])(OC3=CC(O)=C4C(=O)C=C(OC4=C3)C3=CC=C(O)C(O)=C3)[C@]([H])(O)[C@@]([H])(O)[C@]2([H])O)O[C@]([H])(C(O)=O)[C@@]([H])(O)[C@]([H])(O)[C@@]1([H])O

>  <_name>  (139) 
Luteolin 7-O-diglucuronide

>  <_molecular_weight>  (139) 
638.484

>  <_formula>  (139) 
C27H26O18

>  <_logP>  (139) 
-2.8013999999999997

>  <_molecular_wt_calculated>  (139) 
638.4870000000013

>  <_havy_atom_count>  (139) 
45

>  <_hydrogen_acceptors>  (139) 
18

>  <_hydrogen_donors>  (139) 
10

>  <_rotatable_bonds>  (139) 
15

>  <_amide_bonds>  (139) 
0

>  <_ring_count>  (139) 
5

$$$$
Chrysin
     RDKit          3D

 29 31  0  0  0  0  0  0  0  0999 V2000
   -4.4775    1.4727   -2.1959 O   0  0  0  0  0  0  0  0  0  0  0  0
   -3.6498    0.6969   -1.3870 C   0  0  0  0  0  0  0  0  0  0  0  0
   -4.1987   -0.3394   -0.6349 C   0  0  0  0  0  0  0  0  0  0  0  0
   -3.4001   -1.1418    0.1903 C   0  0  0  0  0  0  0  0  0  0  0  0
   -4.0684   -2.1493    0.8947 O   0  0  0  0  0  0  0  0  0  0  0  0
   -1.9927   -0.8939    0.2636 C   0  0  0  0  0  0  0  0  0  0  0  0
   -1.0754   -1.6270    1.0549 C   0  0  0  0  0  0  0  0  0  0  0  0
   -1.4367   -2.5875    1.7814 O   0  0  0  0  0  0  0  0  0  0  0  0
    0.2798   -1.2910    1.0447 C   0  0  0  0  0  0  0  0  0  0  0  0
    0.7303   -0.2252    0.2485 C   0  0  0  0  0  0  0  0  0  0  0  0
   -0.1551    0.4441   -0.4834 O   0  0  0  0  0  0  0  0  0  0  0  0
   -1.4539    0.1676   -0.5115 C   0  0  0  0  0  0  0  0  0  0  0  0
   -2.2797    0.9478   -1.3236 C   0  0  0  0  0  0  0  0  0  0  0  0
    2.1640    0.1964    0.1827 C   0  0  0  0  0  0  0  0  0  0  0  0
    3.1876   -0.4444    0.9180 C   0  0  0  0  0  0  0  0  0  0  0  0
    4.5136   -0.0104    0.8207 C   0  0  0  0  0  0  0  0  0  0  0  0
    4.8437    1.0634   -0.0057 C   0  0  0  0  0  0  0  0  0  0  0  0
    3.8482    1.7081   -0.7387 C   0  0  0  0  0  0  0  0  0  0  0  0
    2.5206    1.2807   -0.6471 C   0  0  0  0  0  0  0  0  0  0  0  0
   -4.1099    2.2337   -2.7552 H   0  0  0  0  0  0  0  0  0  0  0  0
   -5.2643   -0.5262   -0.6912 H   0  0  0  0  0  0  0  0  0  0  0  0
   -3.6525   -2.8120    1.5277 H   0  0  0  0  0  0  0  0  0  0  0  0
    0.9508   -1.8705    1.6595 H   0  0  0  0  0  0  0  0  0  0  0  0
   -1.8516    1.7533   -1.9079 H   0  0  0  0  0  0  0  0  0  0  0  0
    2.9904   -1.2784    1.5716 H   0  0  0  0  0  0  0  0  0  0  0  0
    5.2881   -0.5095    1.3889 H   0  0  0  0  0  0  0  0  0  0  0  0
    5.8712    1.3959   -0.0780 H   0  0  0  0  0  0  0  0  0  0  0  0
    4.1046    2.5415   -1.3800 H   0  0  0  0  0  0  0  0  0  0  0  0
    1.7735    1.8044   -1.2302 H   0  0  0  0  0  0  0  0  0  0  0  0
  1  2  1  0
  2  3  2  0
  3  4  1  0
  4  5  1  0
  4  6  2  0
  6  7  1  0
  7  8  2  0
  7  9  1  0
  9 10  2  0
 10 11  1  0
 11 12  1  0
 12 13  2  0
 10 14  1  0
 14 15  2  0
 15 16  1  0
 16 17  2  0
 17 18  1  0
 18 19  2  0
 13  2  1  0
 19 14  1  0
 12  6  1  0
  1 20  1  0
  3 21  1  0
  5 22  1  0
  9 23  1  0
 13 24  1  0
 15 25  1  0
 16 26  1  0
 17 27  1  0
 18 28  1  0
 19 29  1  0
M  END
>  <LIG_ID>  (140) 
139

>  <_smiles>  (140) 
OC1=CC(O)=C2C(=O)C=C(OC2=C1)C1=CC=CC=C1

>  <_name>  (140) 
Chrysin

>  <_molecular_weight>  (140) 
254.238

>  <_formula>  (140) 
C15H10O4

>  <_logP>  (140) 
2.871200000000001

>  <_molecular_wt_calculated>  (140) 
254.24100000000004

>  <_havy_atom_count>  (140) 
19

>  <_hydrogen_acceptors>  (140) 
4

>  <_hydrogen_donors>  (140) 
2

>  <_rotatable_bonds>  (140) 
3

>  <_amide_bonds>  (140) 
0

>  <_ring_count>  (140) 
3

$$$$
Luteolin 7-O-rutinoside
     RDKit          3D

 72 76  0  0  0  0  0  0  0  0999 V2000
    1.7895   -1.6435    0.5335 C   0  0  0  0  0  0  0  0  0  0  0  0
    2.6035   -1.5568   -0.7581 C   0  0  2  0  0  0  0  0  0  0  0  0
    1.7176   -1.3106   -1.8327 O   0  0  0  0  0  0  0  0  0  0  0  0
    2.4189   -0.8758   -2.9961 C   0  0  1  0  0  0  0  0  0  0  0  0
    2.7934    0.4894   -2.8926 O   0  0  0  0  0  0  0  0  0  0  0  0
    1.6581    1.3055   -2.6779 C   0  0  0  0  0  0  0  0  0  0  0  0
    2.0771    2.7903   -2.6918 C   0  0  1  0  0  0  0  0  0  0  0  0
    0.9686    3.6751   -2.8419 O   0  0  0  0  0  0  0  0  0  0  0  0
    0.1962    3.8528   -1.6612 C   0  0  1  0  0  0  0  0  0  0  0  0
   -0.4763    2.6381   -1.3187 O   0  0  0  0  0  0  0  0  0  0  0  0
   -1.4647    2.4779   -0.3369 C   0  0  0  0  0  0  0  0  0  0  0  0
   -2.1824    3.5542    0.2062 C   0  0  0  0  0  0  0  0  0  0  0  0
   -3.1617    3.3488    1.1870 C   0  0  0  0  0  0  0  0  0  0  0  0
   -3.8792    4.4760    1.5984 O   0  0  0  0  0  0  0  0  0  0  0  0
   -3.3919    2.0334    1.6881 C   0  0  0  0  0  0  0  0  0  0  0  0
   -4.2605    1.7188    2.7605 C   0  0  0  0  0  0  0  0  0  0  0  0
   -4.8646    2.6094    3.4124 O   0  0  0  0  0  0  0  0  0  0  0  0
   -4.4337    0.3880    3.1455 C   0  0  0  0  0  0  0  0  0  0  0  0
   -3.7206   -0.6225    2.4855 C   0  0  0  0  0  0  0  0  0  0  0  0
   -2.8750   -0.2941    1.5150 O   0  0  0  0  0  0  0  0  0  0  0  0
   -2.6780    0.9543    1.1064 C   0  0  0  0  0  0  0  0  0  0  0  0
   -1.7412    1.1845    0.0992 C   0  0  0  0  0  0  0  0  0  0  0  0
   -3.8573   -2.0537    2.8564 C   0  0  0  0  0  0  0  0  0  0  0  0
   -2.7927   -2.9379    2.6033 C   0  0  0  0  0  0  0  0  0  0  0  0
   -2.8964   -4.2964    2.9344 C   0  0  0  0  0  0  0  0  0  0  0  0
   -1.8343   -5.1651    2.6888 O   0  0  0  0  0  0  0  0  0  0  0  0
   -4.0722   -4.7855    3.5148 C   0  0  0  0  0  0  0  0  0  0  0  0
   -4.1717   -6.1364    3.8431 O   0  0  0  0  0  0  0  0  0  0  0  0
   -5.1420   -3.9155    3.7586 C   0  0  0  0  0  0  0  0  0  0  0  0
   -5.0393   -2.5611    3.4295 C   0  0  0  0  0  0  0  0  0  0  0  0
    1.0422    4.3973   -0.4906 C   0  0  2  0  0  0  0  0  0  0  0  0
    1.4528    5.7067   -0.7916 O   0  0  0  0  0  0  0  0  0  0  0  0
    2.2588    3.4976   -0.2196 C   0  0  1  0  0  0  0  0  0  0  0  0
    1.8295    2.3099    0.3973 O   0  0  0  0  0  0  0  0  0  0  0  0
    3.0233    3.1829   -1.5216 C   0  0  2  0  0  0  0  0  0  0  0  0
    3.8490    4.2664   -1.8785 O   0  0  0  0  0  0  0  0  0  0  0  0
    3.6887   -1.7327   -3.2826 C   0  0  2  0  0  0  0  0  0  0  0  0
    3.8931   -1.9151   -4.6624 O   0  0  0  0  0  0  0  0  0  0  0  0
    3.6565   -3.0823   -2.5287 C   0  0  2  0  0  0  0  0  0  0  0  0
    2.7045   -3.9604   -3.0832 O   0  0  0  0  0  0  0  0  0  0  0  0
    3.4018   -2.8651   -1.0128 C   0  0  1  0  0  0  0  0  0  0  0  0
    4.6363   -2.7990   -0.3439 O   0  0  0  0  0  0  0  0  0  0  0  0
    1.2426   -0.6900    0.6952 H   0  0  0  0  0  0  0  0  0  0  0  0
    2.4574   -1.8155    1.4036 H   0  0  0  0  0  0  0  0  0  0  0  0
    1.0481   -2.4689    0.4726 H   0  0  0  0  0  0  0  0  0  0  0  0
    3.3104   -0.7013   -0.6349 H   0  0  0  0  0  0  0  0  0  0  0  0
    1.7249   -0.9998   -3.8582 H   0  0  0  0  0  0  0  0  0  0  0  0
    0.9037    1.1499   -3.4827 H   0  0  0  0  0  0  0  0  0  0  0  0
    1.2070    1.0519   -1.6995 H   0  0  0  0  0  0  0  0  0  0  0  0
    2.6775    2.9038   -3.6218 H   0  0  0  0  0  0  0  0  0  0  0  0
   -0.5750    4.6132   -1.9069 H   0  0  0  0  0  0  0  0  0  0  0  0
   -2.0117    4.5613   -0.1479 H   0  0  0  0  0  0  0  0  0  0  0  0
   -4.7658    4.4503    2.0785 H   0  0  0  0  0  0  0  0  0  0  0  0
   -5.0854    0.1590    3.9790 H   0  0  0  0  0  0  0  0  0  0  0  0
   -1.1969    0.3502   -0.3275 H   0  0  0  0  0  0  0  0  0  0  0  0
   -1.8745   -2.5730    2.1588 H   0  0  0  0  0  0  0  0  0  0  0  0
   -0.9704   -4.8414    2.2694 H   0  0  0  0  0  0  0  0  0  0  0  0
   -5.0105   -6.5194    4.2633 H   0  0  0  0  0  0  0  0  0  0  0  0
   -6.0582   -4.2898    4.1975 H   0  0  0  0  0  0  0  0  0  0  0  0
   -5.8956   -1.9237    3.6030 H   0  0  0  0  0  0  0  0  0  0  0  0
    0.4134    4.4260    0.4283 H   0  0  0  0  0  0  0  0  0  0  0  0
    1.7412    6.1237    0.0622 H   0  0  0  0  0  0  0  0  0  0  0  0
    2.9417    4.0336    0.4812 H   0  0  0  0  0  0  0  0  0  0  0  0
    2.6313    1.8855    0.8009 H   0  0  0  0  0  0  0  0  0  0  0  0
    3.7080    2.3307   -1.3183 H   0  0  0  0  0  0  0  0  0  0  0  0
    3.2858    4.9621   -2.3056 H   0  0  0  0  0  0  0  0  0  0  0  0
    4.5728   -1.1783   -2.8950 H   0  0  0  0  0  0  0  0  0  0  0  0
    3.1146   -2.4134   -5.0234 H   0  0  0  0  0  0  0  0  0  0  0  0
    4.6498   -3.5665   -2.6578 H   0  0  0  0  0  0  0  0  0  0  0  0
    1.8024   -3.5788   -2.9290 H   0  0  0  0  0  0  0  0  0  0  0  0
    2.8277   -3.7458   -0.6364 H   0  0  0  0  0  0  0  0  0  0  0  0
    4.4601   -3.0047    0.6110 H   0  0  0  0  0  0  0  0  0  0  0  0
  1  2  1  0
  2  3  1  0
  3  4  1  0
  4  5  1  0
  5  6  1  0
  6  7  1  0
  7  8  1  0
  8  9  1  0
  9 10  1  0
 10 11  1  0
 11 12  2  0
 12 13  1  0
 13 14  1  0
 13 15  2  0
 15 16  1  0
 16 17  2  0
 16 18  1  0
 18 19  2  0
 19 20  1  0
 20 21  1  0
 21 22  2  0
 19 23  1  0
 23 24  2  0
 24 25  1  0
 25 26  1  0
 25 27  2  0
 27 28  1  0
 27 29  1  0
 29 30  2  0
  9 31  1  0
 31 32  1  0
 31 33  1  0
 33 34  1  0
 33 35  1  0
 35 36  1  0
  4 37  1  0
 37 38  1  0
 37 39  1  0
 39 40  1  0
 39 41  1  0
 41 42  1  0
 41  2  1  0
 35  7  1  0
 22 11  1  0
 30 23  1  0
 21 15  1  0
  1 43  1  0
  1 44  1  0
  1 45  1  0
  2 46  1  1
  4 47  1  6
  6 48  1  0
  6 49  1  0
  7 50  1  6
  9 51  1  6
 12 52  1  0
 14 53  1  0
 18 54  1  0
 22 55  1  0
 24 56  1  0
 26 57  1  0
 28 58  1  0
 29 59  1  0
 30 60  1  0
 31 61  1  1
 32 62  1  0
 33 63  1  1
 34 64  1  0
 35 65  1  1
 36 66  1  0
 37 67  1  1
 38 68  1  0
 39 69  1  1
 40 70  1  0
 41 71  1  1
 42 72  1  0
M  END
>  <LIG_ID>  (141) 
140

>  <_smiles>  (141) 
C[C@@H]1O[C@@H](OC[C@H]2O[C@@H](OC3=CC(O)=C4C(=O)C=C(OC4=C3)C3=CC(O)=C(O)C=C3)[C@H](O)[C@@H](O)[C@@H]2O)[C@H](O)[C@H](O)[C@H]1O

>  <_name>  (141) 
Luteolin 7-O-rutinoside

>  <_molecular_weight>  (141) 
594.518

>  <_formula>  (141) 
C27H30O15

>  <_logP>  (141) 
-1.3927000000000012

>  <_molecular_wt_calculated>  (141) 
594.5220000000015

>  <_havy_atom_count>  (141) 
42

>  <_hydrogen_acceptors>  (141) 
15

>  <_hydrogen_donors>  (141) 
9

>  <_rotatable_bonds>  (141) 
16

>  <_amide_bonds>  (141) 
0

>  <_ring_count>  (141) 
5

$$$$
Tetramethylscutellarein
     RDKit          3D

 43 45  0  0  0  0  0  0  0  0999 V2000
    7.5042    1.2924   -1.1131 C   0  0  0  0  0  0  0  0  0  0  0  0
    6.9075    0.4110   -0.1672 O   0  0  0  0  0  0  0  0  0  0  0  0
    5.5274    0.1859   -0.0556 C   0  0  0  0  0  0  0  0  0  0  0  0
    5.0762   -0.7075    0.9211 C   0  0  0  0  0  0  0  0  0  0  0  0
    3.7113   -0.9681    1.0726 C   0  0  0  0  0  0  0  0  0  0  0  0
    2.7674   -0.3402    0.2378 C   0  0  0  0  0  0  0  0  0  0  0  0
    3.2227    0.5677   -0.7339 C   0  0  0  0  0  0  0  0  0  0  0  0
    4.5883    0.8261   -0.8843 C   0  0  0  0  0  0  0  0  0  0  0  0
    1.3104   -0.5881    0.3807 C   0  0  0  0  0  0  0  0  0  0  0  0
    0.8105   -1.7978    0.8883 C   0  0  0  0  0  0  0  0  0  0  0  0
   -0.5686   -1.9774    1.0001 C   0  0  0  0  0  0  0  0  0  0  0  0
   -1.0057   -3.0675    1.4583 O   0  0  0  0  0  0  0  0  0  0  0  0
   -1.4413   -0.9431    0.6015 C   0  0  0  0  0  0  0  0  0  0  0  0
   -2.8509   -1.0506    0.6678 C   0  0  0  0  0  0  0  0  0  0  0  0
   -3.4403   -2.2500    1.0806 O   0  0  0  0  0  0  0  0  0  0  0  0
   -4.2226   -3.0484    0.1989 C   0  0  0  0  0  0  0  0  0  0  0  0
   -3.6554    0.0505    0.2953 C   0  0  0  0  0  0  0  0  0  0  0  0
   -5.0470    0.0297    0.4484 O   0  0  0  0  0  0  0  0  0  0  0  0
   -5.6821   -0.2106    1.7006 C   0  0  0  0  0  0  0  0  0  0  0  0
   -3.0681    1.2062   -0.2380 C   0  0  0  0  0  0  0  0  0  0  0  0
   -3.9095    2.2563   -0.6394 O   0  0  0  0  0  0  0  0  0  0  0  0
   -3.4565    3.4889   -1.1898 C   0  0  0  0  0  0  0  0  0  0  0  0
   -1.6700    1.2917   -0.3399 C   0  0  0  0  0  0  0  0  0  0  0  0
   -0.8612    0.2388    0.0888 C   0  0  0  0  0  0  0  0  0  0  0  0
    0.4596    0.3623    0.0012 O   0  0  0  0  0  0  0  0  0  0  0  0
    8.6052    1.2763   -0.9794 H   0  0  0  0  0  0  0  0  0  0  0  0
    7.1414    2.3293   -0.9506 H   0  0  0  0  0  0  0  0  0  0  0  0
    7.2665    0.9615   -2.1462 H   0  0  0  0  0  0  0  0  0  0  0  0
    5.7885   -1.1983    1.5724 H   0  0  0  0  0  0  0  0  0  0  0  0
    3.4016   -1.6415    1.8602 H   0  0  0  0  0  0  0  0  0  0  0  0
    2.5216    1.0712   -1.3882 H   0  0  0  0  0  0  0  0  0  0  0  0
    4.9023    1.5249   -1.6476 H   0  0  0  0  0  0  0  0  0  0  0  0
    1.4738   -2.6052    1.1706 H   0  0  0  0  0  0  0  0  0  0  0  0
   -5.1046   -2.4853   -0.1683 H   0  0  0  0  0  0  0  0  0  0  0  0
   -3.6041   -3.3690   -0.6658 H   0  0  0  0  0  0  0  0  0  0  0  0
   -4.5749   -3.9494    0.7413 H   0  0  0  0  0  0  0  0  0  0  0  0
   -5.2977    0.5006    2.4620 H   0  0  0  0  0  0  0  0  0  0  0  0
   -5.5123   -1.2495    2.0447 H   0  0  0  0  0  0  0  0  0  0  0  0
   -6.7743   -0.0547    1.5870 H   0  0  0  0  0  0  0  0  0  0  0  0
   -4.3338    4.1282   -1.4176 H   0  0  0  0  0  0  0  0  0  0  0  0
   -2.8108    4.0194   -0.4584 H   0  0  0  0  0  0  0  0  0  0  0  0
   -2.8973    3.3042   -2.1314 H   0  0  0  0  0  0  0  0  0  0  0  0
   -1.1971    2.1792   -0.7387 H   0  0  0  0  0  0  0  0  0  0  0  0
  1  2  1  0
  2  3  1  0
  3  4  2  0
  4  5  1  0
  5  6  2  0
  6  7  1  0
  7  8  2  0
  6  9  1  0
  9 10  2  0
 10 11  1  0
 11 12  2  0
 11 13  1  0
 13 14  2  0
 14 15  1  0
 15 16  1  0
 14 17  1  0
 17 18  1  0
 18 19  1  0
 17 20  2  0
 20 21  1  0
 21 22  1  0
 20 23  1  0
 23 24  2  0
 24 25  1  0
  8  3  1  0
 25  9  1  0
 24 13  1  0
  1 26  1  0
  1 27  1  0
  1 28  1  0
  4 29  1  0
  5 30  1  0
  7 31  1  0
  8 32  1  0
 10 33  1  0
 16 34  1  0
 16 35  1  0
 16 36  1  0
 19 37  1  0
 19 38  1  0
 19 39  1  0
 22 40  1  0
 22 41  1  0
 22 42  1  0
 23 43  1  0
M  END
>  <LIG_ID>  (142) 
141

>  <_smiles>  (142) 
COC1=CC=C(C=C1)C1=CC(=O)C2=C(OC)C(OC)=C(OC)C=C2O1

>  <_name>  (142) 
Tetramethylscutellarein

>  <_molecular_weight>  (142) 
342.343

>  <_formula>  (142) 
C19H18O6

>  <_logP>  (142) 
3.4944000000000024

>  <_molecular_wt_calculated>  (142) 
342.34699999999975

>  <_havy_atom_count>  (142) 
25

>  <_hydrogen_acceptors>  (142) 
6

>  <_hydrogen_donors>  (142) 
0

>  <_rotatable_bonds>  (142) 
9

>  <_amide_bonds>  (142) 
0

>  <_ring_count>  (142) 
3

$$$$
Luteolin 7-O-glucoside
     RDKit          3D

 52 55  0  0  0  0  0  0  0  0999 V2000
    2.0102   -0.1582   -2.0963 O   0  0  0  0  0  0  0  0  0  0  0  0
    3.3209    0.0598   -1.6518 C   0  0  0  0  0  0  0  0  0  0  0  0
    3.4154    1.4349   -0.9632 C   0  0  1  0  0  0  0  0  0  0  0  0
    2.3952    1.6448    0.0095 O   0  0  0  0  0  0  0  0  0  0  0  0
    2.6316    1.0102    1.2609 C   0  0  1  0  0  0  0  0  0  0  0  0
    2.5174   -0.4110    1.1640 O   0  0  0  0  0  0  0  0  0  0  0  0
    1.3415   -1.1080    0.8439 C   0  0  0  0  0  0  0  0  0  0  0  0
    1.4072   -2.5008    0.7501 C   0  0  0  0  0  0  0  0  0  0  0  0
    0.2748   -3.2575    0.4171 C   0  0  0  0  0  0  0  0  0  0  0  0
    0.3815   -4.6461    0.3297 O   0  0  0  0  0  0  0  0  0  0  0  0
   -0.9561   -2.6063    0.1738 C   0  0  0  0  0  0  0  0  0  0  0  0
   -2.1369   -3.2929   -0.1731 C   0  0  0  0  0  0  0  0  0  0  0  0
   -2.1567   -4.5480   -0.2911 O   0  0  0  0  0  0  0  0  0  0  0  0
   -3.3113   -2.5735   -0.3973 C   0  0  0  0  0  0  0  0  0  0  0  0
   -3.2997   -1.1748   -0.2702 C   0  0  0  0  0  0  0  0  0  0  0  0
   -2.1651   -0.5565    0.0498 O   0  0  0  0  0  0  0  0  0  0  0  0
   -1.0218   -1.1970    0.2729 C   0  0  0  0  0  0  0  0  0  0  0  0
    0.1175   -0.4594    0.6063 C   0  0  0  0  0  0  0  0  0  0  0  0
   -4.5178   -0.3569   -0.4987 C   0  0  0  0  0  0  0  0  0  0  0  0
   -4.3864    0.9785   -0.9157 C   0  0  0  0  0  0  0  0  0  0  0  0
   -5.5116    1.7836   -1.1332 C   0  0  0  0  0  0  0  0  0  0  0  0
   -5.3010    3.0979   -1.5556 O   0  0  0  0  0  0  0  0  0  0  0  0
   -6.8030    1.2476   -0.9209 C   0  0  0  0  0  0  0  0  0  0  0  0
   -7.9702    1.9881   -1.1182 O   0  0  0  0  0  0  0  0  0  0  0  0
   -6.9336   -0.0772   -0.4925 C   0  0  0  0  0  0  0  0  0  0  0  0
   -5.8069   -0.8733   -0.2787 C   0  0  0  0  0  0  0  0  0  0  0  0
    3.9827    1.4034    1.8865 C   0  0  2  0  0  0  0  0  0  0  0  0
    3.9680    2.7630    2.2425 O   0  0  0  0  0  0  0  0  0  0  0  0
    5.1364    1.1432    0.9127 C   0  0  1  0  0  0  0  0  0  0  0  0
    5.3461   -0.2400    0.7852 O   0  0  0  0  0  0  0  0  0  0  0  0
    4.8382    1.7801   -0.4588 C   0  0  2  0  0  0  0  0  0  0  0  0
    4.9581    3.1780   -0.3685 O   0  0  0  0  0  0  0  0  0  0  0  0
    1.9985   -1.0701   -2.4879 H   0  0  0  0  0  0  0  0  0  0  0  0
    3.6347   -0.7609   -0.9759 H   0  0  0  0  0  0  0  0  0  0  0  0
    4.0069    0.0467   -2.5283 H   0  0  0  0  0  0  0  0  0  0  0  0
    3.2048    2.1627   -1.7785 H   0  0  0  0  0  0  0  0  0  0  0  0
    1.8479    1.3604    1.9674 H   0  0  0  0  0  0  0  0  0  0  0  0
    2.3516   -2.9988    0.9317 H   0  0  0  0  0  0  0  0  0  0  0  0
    1.2580   -5.1251    0.5010 H   0  0  0  0  0  0  0  0  0  0  0  0
   -4.2082   -3.1031   -0.6920 H   0  0  0  0  0  0  0  0  0  0  0  0
    0.0369    0.6169    0.6700 H   0  0  0  0  0  0  0  0  0  0  0  0
   -3.4031    1.4004   -1.0866 H   0  0  0  0  0  0  0  0  0  0  0  0
   -6.0428    3.7582   -1.7379 H   0  0  0  0  0  0  0  0  0  0  0  0
   -7.9836    2.9495   -1.4269 H   0  0  0  0  0  0  0  0  0  0  0  0
   -7.9186   -0.4916   -0.3171 H   0  0  0  0  0  0  0  0  0  0  0  0
   -5.9517   -1.8825    0.0823 H   0  0  0  0  0  0  0  0  0  0  0  0
    4.1532    0.7872    2.8012 H   0  0  0  0  0  0  0  0  0  0  0  0
    3.4428    2.8367    3.0819 H   0  0  0  0  0  0  0  0  0  0  0  0
    6.0588    1.6041    1.3392 H   0  0  0  0  0  0  0  0  0  0  0  0
    6.2393   -0.3590    0.3683 H   0  0  0  0  0  0  0  0  0  0  0  0
    5.5809    1.4073   -1.2035 H   0  0  0  0  0  0  0  0  0  0  0  0
    5.9291    3.3852   -0.3453 H   0  0  0  0  0  0  0  0  0  0  0  0
  1  2  1  0
  2  3  1  0
  3  4  1  0
  4  5  1  0
  5  6  1  0
  6  7  1  0
  7  8  2  0
  8  9  1  0
  9 10  1  0
  9 11  2  0
 11 12  1  0
 12 13  2  0
 12 14  1  0
 14 15  2  0
 15 16  1  0
 16 17  1  0
 17 18  2  0
 15 19  1  0
 19 20  2  0
 20 21  1  0
 21 22  1  0
 21 23  2  0
 23 24  1  0
 23 25  1  0
 25 26  2  0
  5 27  1  0
 27 28  1  0
 27 29  1  0
 29 30  1  0
 29 31  1  0
 31 32  1  0
 31  3  1  0
 18  7  1  0
 26 19  1  0
 17 11  1  0
  1 33  1  0
  2 34  1  0
  2 35  1  0
  3 36  1  6
  5 37  1  1
  8 38  1  0
 10 39  1  0
 14 40  1  0
 18 41  1  0
 20 42  1  0
 22 43  1  0
 24 44  1  0
 25 45  1  0
 26 46  1  0
 27 47  1  1
 28 48  1  0
 29 49  1  1
 30 50  1  0
 31 51  1  6
 32 52  1  0
M  END
>  <LIG_ID>  (143) 
142

>  <_smiles>  (143) 
OC[C@H]1O[C@@H](OC2=CC(O)=C3C(=O)C=C(OC3=C2)C2=CC(O)=C(O)C=C2)[C@H](O)[C@@H](O)[C@@H]1O

>  <_name>  (143) 
Luteolin 7-O-glucoside

>  <_molecular_weight>  (143) 
448.377

>  <_formula>  (143) 
C21H20O11

>  <_logP>  (143) 
-0.24450000000000038

>  <_molecular_wt_calculated>  (143) 
448.3799999999999

>  <_havy_atom_count>  (143) 
32

>  <_hydrogen_acceptors>  (143) 
11

>  <_hydrogen_donors>  (143) 
7

>  <_rotatable_bonds>  (143) 
11

>  <_amide_bonds>  (143) 
0

>  <_ring_count>  (143) 
4

$$$$
Apigenin 7-O-glucoside
     RDKit          3D

 51 54  0  0  0  0  0  0  0  0999 V2000
   -4.4201    0.7370   -0.3131 C   0  0  1  0  0  0  0  0  0  0  0  0
   -4.0721    2.1802   -0.7107 C   0  0  0  0  0  0  0  0  0  0  0  0
   -4.3591    2.3995   -2.0657 O   0  0  0  0  0  0  0  0  0  0  0  0
   -3.7297   -0.1430   -1.1990 O   0  0  0  0  0  0  0  0  0  0  0  0
   -3.3349   -1.3898   -0.6368 C   0  0  1  0  0  0  0  0  0  0  0  0
   -2.0378   -1.2741   -0.0478 O   0  0  0  0  0  0  0  0  0  0  0  0
   -0.8700   -0.9007   -0.7306 C   0  0  0  0  0  0  0  0  0  0  0  0
   -0.8369   -0.6985   -2.1222 C   0  0  0  0  0  0  0  0  0  0  0  0
    0.3515   -0.3182   -2.7633 C   0  0  0  0  0  0  0  0  0  0  0  0
    0.3506   -0.1226   -4.1451 O   0  0  0  0  0  0  0  0  0  0  0  0
    1.5317   -0.1388   -2.0057 C   0  0  0  0  0  0  0  0  0  0  0  0
    2.7622    0.2480   -2.5737 C   0  0  0  0  0  0  0  0  0  0  0  0
    2.8758    0.4646   -3.8105 O   0  0  0  0  0  0  0  0  0  0  0  0
    3.8812    0.4010   -1.7542 C   0  0  0  0  0  0  0  0  0  0  0  0
    3.7651    0.1635   -0.3747 C   0  0  0  0  0  0  0  0  0  0  0  0
    2.5859   -0.1910    0.1309 O   0  0  0  0  0  0  0  0  0  0  0  0
    1.4923   -0.3494   -0.6080 C   0  0  0  0  0  0  0  0  0  0  0  0
    0.2993   -0.7272    0.0132 C   0  0  0  0  0  0  0  0  0  0  0  0
    4.9206    0.3118    0.5459 C   0  0  0  0  0  0  0  0  0  0  0  0
    4.6919    0.6179    1.8999 C   0  0  0  0  0  0  0  0  0  0  0  0
    5.7621    0.7546    2.7888 C   0  0  0  0  0  0  0  0  0  0  0  0
    7.0766    0.5777    2.3405 C   0  0  0  0  0  0  0  0  0  0  0  0
    8.1508    0.7115    3.2172 O   0  0  0  0  0  0  0  0  0  0  0  0
    7.3142    0.2602    1.0006 C   0  0  0  0  0  0  0  0  0  0  0  0
    6.2467    0.1235    0.1078 C   0  0  0  0  0  0  0  0  0  0  0  0
   -4.3332   -1.9335    0.4045 C   0  0  2  0  0  0  0  0  0  0  0  0
   -5.5873   -2.1273   -0.2002 O   0  0  0  0  0  0  0  0  0  0  0  0
   -4.4793   -0.9504    1.5903 C   0  0  1  0  0  0  0  0  0  0  0  0
   -3.6486   -1.3464    2.6525 O   0  0  0  0  0  0  0  0  0  0  0  0
   -4.1157    0.4969    1.1881 C   0  0  2  0  0  0  0  0  0  0  0  0
   -4.8469    1.4024    1.9756 O   0  0  0  0  0  0  0  0  0  0  0  0
   -5.5134    0.6004   -0.4716 H   0  0  0  0  0  0  0  0  0  0  0  0
   -4.6325    2.9106   -0.0838 H   0  0  0  0  0  0  0  0  0  0  0  0
   -2.9868    2.3555   -0.5491 H   0  0  0  0  0  0  0  0  0  0  0  0
   -5.3457    2.4842   -2.1371 H   0  0  0  0  0  0  0  0  0  0  0  0
   -3.2775   -2.1357   -1.4591 H   0  0  0  0  0  0  0  0  0  0  0  0
   -1.7273   -0.8365   -2.7194 H   0  0  0  0  0  0  0  0  0  0  0  0
   -0.4874   -0.2469   -4.7011 H   0  0  0  0  0  0  0  0  0  0  0  0
    4.8165    0.7264   -2.1913 H   0  0  0  0  0  0  0  0  0  0  0  0
    0.2790   -0.8836    1.0849 H   0  0  0  0  0  0  0  0  0  0  0  0
    3.6843    0.7637    2.2696 H   0  0  0  0  0  0  0  0  0  0  0  0
    5.5681    0.9978    3.8258 H   0  0  0  0  0  0  0  0  0  0  0  0
    8.0112    0.9400    4.1946 H   0  0  0  0  0  0  0  0  0  0  0  0
    8.3282    0.1117    0.6515 H   0  0  0  0  0  0  0  0  0  0  0  0
    6.4646   -0.1535   -0.9146 H   0  0  0  0  0  0  0  0  0  0  0  0
   -3.9590   -2.9138    0.7844 H   0  0  0  0  0  0  0  0  0  0  0  0
   -5.5160   -2.9455   -0.7582 H   0  0  0  0  0  0  0  0  0  0  0  0
   -5.5416   -0.9639    1.9351 H   0  0  0  0  0  0  0  0  0  0  0  0
   -4.0942   -2.1148    3.0965 H   0  0  0  0  0  0  0  0  0  0  0  0
   -3.0242    0.6693    1.3465 H   0  0  0  0  0  0  0  0  0  0  0  0
   -4.4332    1.3953    2.8782 H   0  0  0  0  0  0  0  0  0  0  0  0
  1  2  1  0
  2  3  1  0
  1  4  1  0
  4  5  1  0
  5  6  1  0
  6  7  1  0
  7  8  2  0
  8  9  1  0
  9 10  1  0
  9 11  2  0
 11 12  1  0
 12 13  2  0
 12 14  1  0
 14 15  2  0
 15 16  1  0
 16 17  1  0
 17 18  2  0
 15 19  1  0
 19 20  2  0
 20 21  1  0
 21 22  2  0
 22 23  1  0
 22 24  1  0
 24 25  2  0
  5 26  1  0
 26 27  1  0
 26 28  1  0
 28 29  1  0
 28 30  1  0
 30 31  1  0
 30  1  1  0
 18  7  1  0
 25 19  1  0
 17 11  1  0
  1 32  1  1
  2 33  1  0
  2 34  1  0
  3 35  1  0
  5 36  1  6
  8 37  1  0
 10 38  1  0
 14 39  1  0
 18 40  1  0
 20 41  1  0
 21 42  1  0
 23 43  1  0
 24 44  1  0
 25 45  1  0
 26 46  1  1
 27 47  1  0
 28 48  1  1
 29 49  1  0
 30 50  1  6
 31 51  1  0
M  END
>  <LIG_ID>  (144) 
143

>  <_smiles>  (144) 
[H][C@]1(CO)O[C@@]([H])(OC2=CC(O)=C3C(=O)C=C(OC3=C2)C2=CC=C(O)C=C2)[C@]([H])(O)[C@@]([H])(O)[C@]1([H])O

>  <_name>  (144) 
Apigenin 7-O-glucoside

>  <_molecular_weight>  (144) 
420.41

>  <_formula>  (144) 
C21H24O9

>  <_logP>  (144) 
0.049899999999999556

>  <_molecular_wt_calculated>  (144) 
432.38099999999986

>  <_havy_atom_count>  (144) 
31

>  <_hydrogen_acceptors>  (144) 
10

>  <_hydrogen_donors>  (144) 
6

>  <_rotatable_bonds>  (144) 
10

>  <_amide_bonds>  (144) 
0

>  <_ring_count>  (144) 
4

$$$$
Apigenin 6,8-di-C-glucoside
     RDKit          3D

 72 76  0  0  0  0  0  0  0  0999 V2000
    3.3991   -0.3979   -0.1089 C   0  0  2  0  0  0  0  0  0  0  0  0
    3.9921   -0.9723   -1.2665 O   0  0  0  0  0  0  0  0  0  0  0  0
    5.4044   -1.1775   -1.1975 C   0  0  2  0  0  0  0  0  0  0  0  0
    5.7013   -2.6849   -1.2869 C   0  0  0  0  0  0  0  0  0  0  0  0
    5.2663   -3.1968   -2.5182 O   0  0  0  0  0  0  0  0  0  0  0  0
    6.1308   -0.5238    0.0118 C   0  0  1  0  0  0  0  0  0  0  0  0
    6.1558    0.8701   -0.1730 O   0  0  0  0  0  0  0  0  0  0  0  0
    5.4453   -0.8705    1.3569 C   0  0  2  0  0  0  0  0  0  0  0  0
    5.9996   -2.0458    1.8934 O   0  0  0  0  0  0  0  0  0  0  0  0
    3.9178   -1.0614    1.1940 C   0  0  1  0  0  0  0  0  0  0  0  0
    3.2312   -0.5863    2.3264 O   0  0  0  0  0  0  0  0  0  0  0  0
    1.8781   -0.5298   -0.2136 C   0  0  0  0  0  0  0  0  0  0  0  0
    1.0100    0.5389    0.1415 C   0  0  0  0  0  0  0  0  0  0  0  0
    1.4871    1.7427    0.6776 O   0  0  0  0  0  0  0  0  0  0  0  0
   -0.3862    0.4043   -0.0152 C   0  0  0  0  0  0  0  0  0  0  0  0
   -0.9237   -0.8119   -0.4760 C   0  0  0  0  0  0  0  0  0  0  0  0
   -2.2450   -0.9353   -0.5837 O   0  0  0  0  0  0  0  0  0  0  0  0
   -2.8563   -2.0227   -1.0373 C   0  0  0  0  0  0  0  0  0  0  0  0
   -2.0861   -3.1049   -1.4759 C   0  0  0  0  0  0  0  0  0  0  0  0
   -0.6966   -3.0347   -1.3910 C   0  0  0  0  0  0  0  0  0  0  0  0
   -0.0249   -3.9850   -1.8714 O   0  0  0  0  0  0  0  0  0  0  0  0
   -0.0796   -1.8926   -0.8221 C   0  0  0  0  0  0  0  0  0  0  0  0
    1.3206   -1.7670   -0.6218 C   0  0  0  0  0  0  0  0  0  0  0  0
    2.1866   -2.8553   -0.7770 O   0  0  0  0  0  0  0  0  0  0  0  0
   -4.3405   -2.0355   -1.0898 C   0  0  0  0  0  0  0  0  0  0  0  0
   -5.0749   -3.2377   -1.0489 C   0  0  0  0  0  0  0  0  0  0  0  0
   -6.4725   -3.2160   -1.0862 C   0  0  0  0  0  0  0  0  0  0  0  0
   -7.1574   -1.9968   -1.1560 C   0  0  0  0  0  0  0  0  0  0  0  0
   -8.5495   -1.9646   -1.1943 O   0  0  0  0  0  0  0  0  0  0  0  0
   -6.4381   -0.7994   -1.1838 C   0  0  0  0  0  0  0  0  0  0  0  0
   -5.0409   -0.8162   -1.1462 C   0  0  0  0  0  0  0  0  0  0  0  0
   -1.3197    1.5488    0.3723 C   0  0  2  0  0  0  0  0  0  0  0  0
   -0.8065    2.7767   -0.1149 O   0  0  0  0  0  0  0  0  0  0  0  0
   -1.7917    3.8000   -0.0496 C   0  0  2  0  0  0  0  0  0  0  0  0
   -1.1223    5.1358   -0.4034 C   0  0  0  0  0  0  0  0  0  0  0  0
   -0.5065    5.0602   -1.6611 O   0  0  0  0  0  0  0  0  0  0  0  0
   -2.4853    3.8832    1.3508 C   0  0  1  0  0  0  0  0  0  0  0  0
   -3.7986    3.3901    1.2665 O   0  0  0  0  0  0  0  0  0  0  0  0
   -1.7097    3.0594    2.3970 C   0  0  2  0  0  0  0  0  0  0  0  0
   -0.4558    3.6501    2.6329 O   0  0  0  0  0  0  0  0  0  0  0  0
   -1.5014    1.6048    1.9121 C   0  0  1  0  0  0  0  0  0  0  0  0
   -2.6062    0.8123    2.2690 O   0  0  0  0  0  0  0  0  0  0  0  0
    3.6785    0.6704   -0.1198 H   0  0  0  0  0  0  0  0  0  0  0  0
    5.8434   -0.7200   -2.1117 H   0  0  0  0  0  0  0  0  0  0  0  0
    5.2193   -3.2339   -0.4473 H   0  0  0  0  0  0  0  0  0  0  0  0
    6.7962   -2.8571   -1.2145 H   0  0  0  0  0  0  0  0  0  0  0  0
    4.2914   -3.3613   -2.4335 H   0  0  0  0  0  0  0  0  0  0  0  0
    7.1858   -0.8883    0.0291 H   0  0  0  0  0  0  0  0  0  0  0  0
    6.8677    1.2295    0.4189 H   0  0  0  0  0  0  0  0  0  0  0  0
    5.6335   -0.0324    2.0695 H   0  0  0  0  0  0  0  0  0  0  0  0
    6.8882   -1.8043    2.2652 H   0  0  0  0  0  0  0  0  0  0  0  0
    3.7086   -2.1500    1.1227 H   0  0  0  0  0  0  0  0  0  0  0  0
    3.4113    0.3861    2.4026 H   0  0  0  0  0  0  0  0  0  0  0  0
    2.4356    1.9249    0.9665 H   0  0  0  0  0  0  0  0  0  0  0  0
   -2.5469   -3.9774   -1.9210 H   0  0  0  0  0  0  0  0  0  0  0  0
    1.9104   -3.8201   -0.6641 H   0  0  0  0  0  0  0  0  0  0  0  0
   -4.5789   -4.1947   -0.9627 H   0  0  0  0  0  0  0  0  0  0  0  0
   -7.0224   -4.1480   -1.0529 H   0  0  0  0  0  0  0  0  0  0  0  0
   -9.0996   -2.8155   -1.1745 H   0  0  0  0  0  0  0  0  0  0  0  0
   -6.9625    0.1464   -1.2341 H   0  0  0  0  0  0  0  0  0  0  0  0
   -4.5078    0.1264   -1.1719 H   0  0  0  0  0  0  0  0  0  0  0  0
   -2.3157    1.3753   -0.0995 H   0  0  0  0  0  0  0  0  0  0  0  0
   -2.5598    3.6104   -0.8349 H   0  0  0  0  0  0  0  0  0  0  0  0
   -1.8733    5.9590   -0.3958 H   0  0  0  0  0  0  0  0  0  0  0  0
   -0.3461    5.3743    0.3548 H   0  0  0  0  0  0  0  0  0  0  0  0
   -1.2325    5.1093   -2.3366 H   0  0  0  0  0  0  0  0  0  0  0  0
   -2.5286    4.9375    1.7149 H   0  0  0  0  0  0  0  0  0  0  0  0
   -4.3361    4.0851    0.8039 H   0  0  0  0  0  0  0  0  0  0  0  0
   -2.2863    3.0446    3.3523 H   0  0  0  0  0  0  0  0  0  0  0  0
   -0.6160    4.4564    3.1898 H   0  0  0  0  0  0  0  0  0  0  0  0
   -0.5895    1.2015    2.4153 H   0  0  0  0  0  0  0  0  0  0  0  0
   -2.5181    0.6113    3.2374 H   0  0  0  0  0  0  0  0  0  0  0  0
  1  2  1  0
  2  3  1  0
  3  4  1  0
  4  5  1  0
  3  6  1  0
  6  7  1  0
  6  8  1  0
  8  9  1  0
  8 10  1  0
 10 11  1  0
  1 12  1  0
 12 13  2  0
 13 14  1  0
 13 15  1  0
 15 16  2  0
 16 17  1  0
 17 18  1  0
 18 19  2  0
 19 20  1  0
 20 21  2  0
 20 22  1  0
 22 23  2  0
 23 24  1  0
 18 25  1  0
 25 26  2  0
 26 27  1  0
 27 28  2  0
 28 29  1  0
 28 30  1  0
 30 31  2  0
 15 32  1  0
 32 33  1  0
 33 34  1  0
 34 35  1  0
 35 36  1  0
 34 37  1  0
 37 38  1  0
 37 39  1  0
 39 40  1  0
 39 41  1  0
 41 42  1  0
 10  1  1  0
 23 12  1  0
 31 25  1  0
 41 32  1  0
 22 16  1  0
  1 43  1  1
  3 44  1  6
  4 45  1  0
  4 46  1  0
  5 47  1  0
  6 48  1  1
  7 49  1  0
  8 50  1  1
  9 51  1  0
 10 52  1  6
 11 53  1  0
 14 54  1  0
 19 55  1  0
 24 56  1  0
 26 57  1  0
 27 58  1  0
 29 59  1  0
 30 60  1  0
 31 61  1  0
 32 62  1  6
 34 63  1  6
 35 64  1  0
 35 65  1  0
 36 66  1  0
 37 67  1  1
 38 68  1  0
 39 69  1  1
 40 70  1  0
 41 71  1  1
 42 72  1  0
M  END
>  <LIG_ID>  (145) 
144

>  <_smiles>  (145) 
[H][C@]1(O[C@H](CO)[C@@H](O)[C@H](O)[C@H]1O)C1=C(O)C(=C2OC(=CC(=O)C2=C1O)C1=CC=C(O)C=C1)[C@]1([H])O[C@H](CO)[C@@H](O)[C@H](O)[C@H]1O

>  <_name>  (145) 
Apigenin 6,8-di-C-glucoside

>  <_molecular_weight>  (145) 
594.518

>  <_formula>  (145) 
C27H30O15

>  <_logP>  (145) 
-2.3934

>  <_molecular_wt_calculated>  (145) 
594.5220000000015

>  <_havy_atom_count>  (145) 
42

>  <_hydrogen_acceptors>  (145) 
15

>  <_hydrogen_donors>  (145) 
11

>  <_rotatable_bonds>  (145) 
16

>  <_amide_bonds>  (145) 
0

>  <_ring_count>  (145) 
5

$$$$
Luteolin 7-O-glucuronide
     RDKit          3D

 51 54  0  0  0  0  0  0  0  0999 V2000
   -5.5946    0.2697   -2.4773 O   0  0  0  0  0  0  0  0  0  0  0  0
   -5.2185    0.2458   -1.1246 C   0  0  2  0  0  0  0  0  0  0  0  0
   -3.7078   -0.0392   -1.0223 C   0  0  1  0  0  0  0  0  0  0  0  0
   -2.9624    1.0039   -1.5989 O   0  0  0  0  0  0  0  0  0  0  0  0
   -3.3012   -0.2792    0.4522 C   0  0  2  0  0  0  0  0  0  0  0  0
   -1.9215   -0.6512    0.5153 O   0  0  0  0  0  0  0  0  0  0  0  0
   -0.8126    0.2128    0.4898 C   0  0  0  0  0  0  0  0  0  0  0  0
   -0.9157    1.6059    0.6632 C   0  0  0  0  0  0  0  0  0  0  0  0
    0.2263    2.4203    0.6276 C   0  0  0  0  0  0  0  0  0  0  0  0
    0.0886    3.7988    0.7976 O   0  0  0  0  0  0  0  0  0  0  0  0
    1.4983    1.8389    0.4231 C   0  0  0  0  0  0  0  0  0  0  0  0
    2.6903    2.5888    0.3682 C   0  0  0  0  0  0  0  0  0  0  0  0
    2.6839    3.8434    0.4927 O   0  0  0  0  0  0  0  0  0  0  0  0
    3.9066    1.9351    0.1671 C   0  0  0  0  0  0  0  0  0  0  0  0
    3.9247    0.5377    0.0261 C   0  0  0  0  0  0  0  0  0  0  0  0
    2.7796   -0.1393    0.0729 O   0  0  0  0  0  0  0  0  0  0  0  0
    1.5971    0.4381    0.2618 C   0  0  0  0  0  0  0  0  0  0  0  0
    0.4491   -0.3568    0.2991 C   0  0  0  0  0  0  0  0  0  0  0  0
    5.1882   -0.2114   -0.1909 C   0  0  0  0  0  0  0  0  0  0  0  0
    6.4231    0.2626    0.2935 C   0  0  0  0  0  0  0  0  0  0  0  0
    7.6015   -0.4692    0.0836 C   0  0  0  0  0  0  0  0  0  0  0  0
    8.8187    0.0101    0.5657 O   0  0  0  0  0  0  0  0  0  0  0  0
    7.5522   -1.6893   -0.6100 C   0  0  0  0  0  0  0  0  0  0  0  0
    8.7067   -2.4377   -0.8372 O   0  0  0  0  0  0  0  0  0  0  0  0
    6.3274   -2.1697   -1.0807 C   0  0  0  0  0  0  0  0  0  0  0  0
    5.1541   -1.4416   -0.8698 C   0  0  0  0  0  0  0  0  0  0  0  0
   -4.0553   -1.3537    0.9873 O   0  0  0  0  0  0  0  0  0  0  0  0
   -5.4327   -1.0250    1.0500 C   0  0  1  0  0  0  0  0  0  0  0  0
   -6.0075   -0.8447   -0.3741 C   0  0  1  0  0  0  0  0  0  0  0  0
   -7.3783   -0.5296   -0.3336 O   0  0  0  0  0  0  0  0  0  0  0  0
   -6.1537   -2.1346    1.7561 C   0  0  0  0  0  0  0  0  0  0  0  0
   -5.8890   -3.4597    1.4220 O   0  0  0  0  0  0  0  0  0  0  0  0
   -7.0228   -1.8690    2.6294 O   0  0  0  0  0  0  0  0  0  0  0  0
   -6.4603    0.7533   -2.5266 H   0  0  0  0  0  0  0  0  0  0  0  0
   -5.4258    1.2370   -0.6545 H   0  0  0  0  0  0  0  0  0  0  0  0
   -3.4866   -0.9687   -1.5929 H   0  0  0  0  0  0  0  0  0  0  0  0
   -3.2168    1.8464   -1.1400 H   0  0  0  0  0  0  0  0  0  0  0  0
   -3.4745    0.6301    1.0684 H   0  0  0  0  0  0  0  0  0  0  0  0
   -1.8708    2.0767    0.8357 H   0  0  0  0  0  0  0  0  0  0  0  0
   -0.8161    4.2309    0.9447 H   0  0  0  0  0  0  0  0  0  0  0  0
    4.8157    2.5184    0.0964 H   0  0  0  0  0  0  0  0  0  0  0  0
    0.5371   -1.4291    0.1730 H   0  0  0  0  0  0  0  0  0  0  0  0
    6.4782    1.1844    0.8566 H   0  0  0  0  0  0  0  0  0  0  0  0
    8.8824    0.8867    1.0700 H   0  0  0  0  0  0  0  0  0  0  0  0
    9.6176   -2.1327   -0.5157 H   0  0  0  0  0  0  0  0  0  0  0  0
    6.2846   -3.1117   -1.6128 H   0  0  0  0  0  0  0  0  0  0  0  0
    4.2196   -1.8359   -1.2498 H   0  0  0  0  0  0  0  0  0  0  0  0
   -5.5796   -0.0896    1.6408 H   0  0  0  0  0  0  0  0  0  0  0  0
   -5.8913   -1.8035   -0.9281 H   0  0  0  0  0  0  0  0  0  0  0  0
   -7.4783    0.3151    0.1789 H   0  0  0  0  0  0  0  0  0  0  0  0
   -6.3778   -4.2188    1.8811 H   0  0  0  0  0  0  0  0  0  0  0  0
  1  2  1  0
  2  3  1  0
  3  4  1  0
  3  5  1  0
  5  6  1  0
  6  7  1  0
  7  8  2  0
  8  9  1  0
  9 10  1  0
  9 11  2  0
 11 12  1  0
 12 13  2  0
 12 14  1  0
 14 15  2  0
 15 16  1  0
 16 17  1  0
 17 18  2  0
 15 19  1  0
 19 20  2  0
 20 21  1  0
 21 22  1  0
 21 23  2  0
 23 24  1  0
 23 25  1  0
 25 26  2  0
  5 27  1  0
 27 28  1  0
 28 29  1  0
 29 30  1  0
 28 31  1  0
 31 32  1  0
 31 33  2  0
 29  2  1  0
 18  7  1  0
 26 19  1  0
 17 11  1  0
  1 34  1  0
  2 35  1  1
  3 36  1  6
  4 37  1  0
  5 38  1  1
  8 39  1  0
 10 40  1  0
 14 41  1  0
 18 42  1  0
 20 43  1  0
 22 44  1  0
 24 45  1  0
 25 46  1  0
 26 47  1  0
 28 48  1  1
 29 49  1  6
 30 50  1  0
 32 51  1  0
M  END
>  <LIG_ID>  (146) 
145

>  <_smiles>  (146) 
O[C@@H]1[C@@H](O)[C@H](OC2=CC(O)=C3C(=O)C=C(OC3=C2)C2=CC(O)=C(O)C=C2)O[C@@H]([C@H]1O)C(O)=O

>  <_name>  (146) 
Luteolin 7-O-glucuronide

>  <_molecular_weight>  (146) 
462.36

>  <_formula>  (146) 
C21H18O12

>  <_logP>  (146) 
-0.15220000000000045

>  <_molecular_wt_calculated>  (146) 
462.36299999999994

>  <_havy_atom_count>  (146) 
33

>  <_hydrogen_acceptors>  (146) 
12

>  <_hydrogen_donors>  (146) 
7

>  <_rotatable_bonds>  (146) 
10

>  <_amide_bonds>  (146) 
0

>  <_ring_count>  (146) 
4

$$$$
Apigenin 7-O-glucuronide
     RDKit          3D

 50 53  0  0  0  0  0  0  0  0999 V2000
    3.4239    3.0776    1.5078 O   0  0  0  0  0  0  0  0  0  0  0  0
    4.4253    2.6789    0.6017 C   0  0  2  0  0  0  0  0  0  0  0  0
    3.7977    2.2304   -0.7378 C   0  0  1  0  0  0  0  0  0  0  0  0
    4.7960    2.1641   -1.7259 O   0  0  0  0  0  0  0  0  0  0  0  0
    3.1125    0.8369   -0.6105 C   0  0  2  0  0  0  0  0  0  0  0  0
    1.6973    1.0250   -0.5803 O   0  0  0  0  0  0  0  0  0  0  0  0
    0.7439   -0.0055   -0.6045 C   0  0  0  0  0  0  0  0  0  0  0  0
    1.0966   -1.3630   -0.7156 C   0  0  0  0  0  0  0  0  0  0  0  0
    0.1108   -2.3609   -0.7333 C   0  0  0  0  0  0  0  0  0  0  0  0
    0.4937   -3.6985   -0.8425 O   0  0  0  0  0  0  0  0  0  0  0  0
   -1.2537   -2.0020   -0.6413 C   0  0  0  0  0  0  0  0  0  0  0  0
   -2.3017   -2.9442   -0.6465 C   0  0  0  0  0  0  0  0  0  0  0  0
   -2.0728   -4.1813   -0.7292 O   0  0  0  0  0  0  0  0  0  0  0  0
   -3.6231   -2.5053   -0.5535 C   0  0  0  0  0  0  0  0  0  0  0  0
   -3.8891   -1.1293   -0.4595 C   0  0  0  0  0  0  0  0  0  0  0  0
   -2.8754   -0.2666   -0.4474 O   0  0  0  0  0  0  0  0  0  0  0  0
   -1.6012   -0.6356   -0.5334 C   0  0  0  0  0  0  0  0  0  0  0  0
   -0.6055    0.3445   -0.5162 C   0  0  0  0  0  0  0  0  0  0  0  0
   -5.2741   -0.6042   -0.3569 C   0  0  0  0  0  0  0  0  0  0  0  0
   -6.3725   -1.2979   -0.9030 C   0  0  0  0  0  0  0  0  0  0  0  0
   -7.6646   -0.7734   -0.7995 C   0  0  0  0  0  0  0  0  0  0  0  0
   -7.8798    0.4499   -0.1593 C   0  0  0  0  0  0  0  0  0  0  0  0
   -9.1730    0.9585   -0.0633 O   0  0  0  0  0  0  0  0  0  0  0  0
   -6.7938    1.1532    0.3757 C   0  0  0  0  0  0  0  0  0  0  0  0
   -5.5003    0.6329    0.2736 C   0  0  0  0  0  0  0  0  0  0  0  0
    3.4998    0.1258    0.5589 O   0  0  0  0  0  0  0  0  0  0  0  0
    4.9016    0.1690    0.7335 C   0  0  1  0  0  0  0  0  0  0  0  0
    5.3311    1.5746    1.2156 C   0  0  1  0  0  0  0  0  0  0  0  0
    6.6710    1.7889    0.8498 O   0  0  0  0  0  0  0  0  0  0  0  0
    5.3093   -0.8749    1.7306 C   0  0  0  0  0  0  0  0  0  0  0  0
    6.4999   -1.5729    1.5534 O   0  0  0  0  0  0  0  0  0  0  0  0
    4.5994   -1.0928    2.7494 O   0  0  0  0  0  0  0  0  0  0  0  0
    2.8926    2.2777    1.7557 H   0  0  0  0  0  0  0  0  0  0  0  0
    5.0442    3.5820    0.4053 H   0  0  0  0  0  0  0  0  0  0  0  0
    3.0367    2.9861   -1.0477 H   0  0  0  0  0  0  0  0  0  0  0  0
    5.0021    3.0978   -1.9938 H   0  0  0  0  0  0  0  0  0  0  0  0
    3.3581    0.2281   -1.5108 H   0  0  0  0  0  0  0  0  0  0  0  0
    2.1339   -1.6581   -0.7902 H   0  0  0  0  0  0  0  0  0  0  0  0
    1.4675   -3.9711   -0.9089 H   0  0  0  0  0  0  0  0  0  0  0  0
   -4.4223   -3.2348   -0.5287 H   0  0  0  0  0  0  0  0  0  0  0  0
   -0.8825    1.3883   -0.4321 H   0  0  0  0  0  0  0  0  0  0  0  0
   -6.2382   -2.2314   -1.4322 H   0  0  0  0  0  0  0  0  0  0  0  0
   -8.4997   -1.3158   -1.2243 H   0  0  0  0  0  0  0  0  0  0  0  0
   -9.3615    1.8432    0.3937 H   0  0  0  0  0  0  0  0  0  0  0  0
   -6.9505    2.1031    0.8708 H   0  0  0  0  0  0  0  0  0  0  0  0
   -4.6770    1.1936    0.6990 H   0  0  0  0  0  0  0  0  0  0  0  0
    5.4165   -0.0786   -0.2260 H   0  0  0  0  0  0  0  0  0  0  0  0
    5.2426    1.6271    2.3281 H   0  0  0  0  0  0  0  0  0  0  0  0
    7.0098    2.5302    1.4170 H   0  0  0  0  0  0  0  0  0  0  0  0
    6.7987   -2.2693    2.2256 H   0  0  0  0  0  0  0  0  0  0  0  0
  1  2  1  0
  2  3  1  0
  3  4  1  0
  3  5  1  0
  5  6  1  0
  6  7  1  0
  7  8  2  0
  8  9  1  0
  9 10  1  0
  9 11  2  0
 11 12  1  0
 12 13  2  0
 12 14  1  0
 14 15  2  0
 15 16  1  0
 16 17  1  0
 17 18  2  0
 15 19  1  0
 19 20  2  0
 20 21  1  0
 21 22  2  0
 22 23  1  0
 22 24  1  0
 24 25  2  0
  5 26  1  0
 26 27  1  0
 27 28  1  0
 28 29  1  0
 27 30  1  0
 30 31  1  0
 30 32  2  0
 28  2  1  0
 18  7  1  0
 25 19  1  0
 17 11  1  0
  1 33  1  0
  2 34  1  6
  3 35  1  6
  4 36  1  0
  5 37  1  6
  8 38  1  0
 10 39  1  0
 14 40  1  0
 18 41  1  0
 20 42  1  0
 21 43  1  0
 23 44  1  0
 24 45  1  0
 25 46  1  0
 27 47  1  6
 28 48  1  1
 29 49  1  0
 31 50  1  0
M  END
>  <LIG_ID>  (147) 
146

>  <_smiles>  (147) 
O[C@@H]1[C@@H](O)[C@H](OC2=CC(O)=C3C(=O)C=C(OC3=C2)C2=CC=C(O)C=C2)O[C@@H]([C@H]1O)C(O)=O

>  <_name>  (147) 
Apigenin 7-O-glucuronide

>  <_molecular_weight>  (147) 
446.361

>  <_formula>  (147) 
C21H18O11

>  <_logP>  (147) 
0.14219999999999972

>  <_molecular_wt_calculated>  (147) 
446.3639999999999

>  <_havy_atom_count>  (147) 
32

>  <_hydrogen_acceptors>  (147) 
11

>  <_hydrogen_donors>  (147) 
6

>  <_rotatable_bonds>  (147) 
9

>  <_amide_bonds>  (147) 
0

>  <_ring_count>  (147) 
4

$$$$
Luteolin 7-O-malonyl-glucoside
     RDKit          3D

 60 63  0  0  0  0  0  0  0  0999 V2000
   -1.0086   -3.7904   -0.8543 O   0  0  0  0  0  0  0  0  0  0  0  0
   -1.7728   -2.9522   -1.6867 C   0  0  1  0  0  0  0  0  0  0  0  0
   -3.2337   -2.8766   -1.1844 C   0  0  2  0  0  0  0  0  0  0  0  0
   -3.9482   -4.0188   -1.5912 O   0  0  0  0  0  0  0  0  0  0  0  0
   -3.9080   -1.5674   -1.6813 C   0  0  1  0  0  0  0  0  0  0  0  0
   -5.3727   -1.5040   -1.2170 C   0  0  0  0  0  0  0  0  0  0  0  0
   -6.0140   -0.3367   -1.7302 O   0  0  0  0  0  0  0  0  0  0  0  0
   -5.9613    0.9146   -1.1049 C   0  0  0  0  0  0  0  0  0  0  0  0
   -5.4217    1.0503    0.0274 O   0  0  0  0  0  0  0  0  0  0  0  0
   -6.5101    2.1094   -1.8116 C   0  0  0  0  0  0  0  0  0  0  0  0
   -5.4696    2.6776   -2.7204 C   0  0  0  0  0  0  0  0  0  0  0  0
   -4.5456    3.5940   -2.2280 O   0  0  0  0  0  0  0  0  0  0  0  0
   -5.4011    2.2959   -3.9194 O   0  0  0  0  0  0  0  0  0  0  0  0
   -3.2467   -0.3743   -1.2624 O   0  0  0  0  0  0  0  0  0  0  0  0
   -1.8702   -0.5119   -0.9331 C   0  0  1  0  0  0  0  0  0  0  0  0
   -1.7563   -0.8331    0.4564 O   0  0  0  0  0  0  0  0  0  0  0  0
   -0.5966   -0.7160    1.2409 C   0  0  0  0  0  0  0  0  0  0  0  0
   -0.6360   -1.2151    2.5433 C   0  0  0  0  0  0  0  0  0  0  0  0
    0.4717   -1.1300    3.3945 C   0  0  0  0  0  0  0  0  0  0  0  0
    0.2892   -1.5854    4.7036 O   0  0  0  0  0  0  0  0  0  0  0  0
    1.6908   -0.5751    2.9073 C   0  0  0  0  0  0  0  0  0  0  0  0
    2.9064   -0.5412    3.6312 C   0  0  0  0  0  0  0  0  0  0  0  0
    3.0235   -1.0766    4.7638 O   0  0  0  0  0  0  0  0  0  0  0  0
    4.0302    0.0675    3.0709 C   0  0  0  0  0  0  0  0  0  0  0  0
    3.9527    0.6123    1.7819 C   0  0  0  0  0  0  0  0  0  0  0  0
    2.8145    0.5175    1.1026 O   0  0  0  0  0  0  0  0  0  0  0  0
    1.7141   -0.0455    1.5909 C   0  0  0  0  0  0  0  0  0  0  0  0
    0.5813   -0.1120    0.7764 C   0  0  0  0  0  0  0  0  0  0  0  0
    5.1165    1.2719    1.1377 C   0  0  0  0  0  0  0  0  0  0  0  0
    6.1189    1.9094    1.8947 C   0  0  0  0  0  0  0  0  0  0  0  0
    7.2037    2.5345    1.2617 C   0  0  0  0  0  0  0  0  0  0  0  0
    8.1913    3.1609    2.0207 O   0  0  0  0  0  0  0  0  0  0  0  0
    7.2910    2.5320   -0.1399 C   0  0  0  0  0  0  0  0  0  0  0  0
    8.3587    3.1419   -0.7977 O   0  0  0  0  0  0  0  0  0  0  0  0
    6.2921    1.9122   -0.8952 C   0  0  0  0  0  0  0  0  0  0  0  0
    5.2112    1.2916   -0.2645 C   0  0  0  0  0  0  0  0  0  0  0  0
   -1.1295   -1.5491   -1.8148 C   0  0  2  0  0  0  0  0  0  0  0  0
   -1.1777   -1.1351   -3.1573 O   0  0  0  0  0  0  0  0  0  0  0  0
   -0.9554   -3.3639    0.0401 H   0  0  0  0  0  0  0  0  0  0  0  0
   -1.7697   -3.4189   -2.6970 H   0  0  0  0  0  0  0  0  0  0  0  0
   -3.2411   -2.8611   -0.0724 H   0  0  0  0  0  0  0  0  0  0  0  0
   -4.0325   -3.9866   -2.5802 H   0  0  0  0  0  0  0  0  0  0  0  0
   -3.9151   -1.5777   -2.7943 H   0  0  0  0  0  0  0  0  0  0  0  0
   -5.9219   -2.3876   -1.6052 H   0  0  0  0  0  0  0  0  0  0  0  0
   -5.4360   -1.5295   -0.1067 H   0  0  0  0  0  0  0  0  0  0  0  0
   -7.4068    1.8150   -2.3983 H   0  0  0  0  0  0  0  0  0  0  0  0
   -6.8204    2.8797   -1.0731 H   0  0  0  0  0  0  0  0  0  0  0  0
   -3.8218    3.9741   -2.8262 H   0  0  0  0  0  0  0  0  0  0  0  0
   -1.4131    0.4854   -1.1042 H   0  0  0  0  0  0  0  0  0  0  0  0
   -1.5544   -1.6575    2.9101 H   0  0  0  0  0  0  0  0  0  0  0  0
    0.8837   -1.3502    5.4836 H   0  0  0  0  0  0  0  0  0  0  0  0
    4.9603    0.0737    3.6251 H   0  0  0  0  0  0  0  0  0  0  0  0
    0.6409    0.3028   -0.2196 H   0  0  0  0  0  0  0  0  0  0  0  0
    6.0545    1.9489    2.9738 H   0  0  0  0  0  0  0  0  0  0  0  0
    8.1524    3.1781    3.0332 H   0  0  0  0  0  0  0  0  0  0  0  0
    9.1068    3.6045   -0.2954 H   0  0  0  0  0  0  0  0  0  0  0  0
    6.3538    1.9112   -1.9761 H   0  0  0  0  0  0  0  0  0  0  0  0
    4.4539    0.8153   -0.8751 H   0  0  0  0  0  0  0  0  0  0  0  0
   -0.0624   -1.6170   -1.5020 H   0  0  0  0  0  0  0  0  0  0  0  0
   -0.5327   -0.3859   -3.2519 H   0  0  0  0  0  0  0  0  0  0  0  0
  1  2  1  0
  2  3  1  0
  3  4  1  0
  3  5  1  0
  5  6  1  0
  6  7  1  0
  7  8  1  0
  8  9  2  0
  8 10  1  0
 10 11  1  0
 11 12  1  0
 11 13  2  0
  5 14  1  0
 14 15  1  0
 15 16  1  0
 16 17  1  0
 17 18  2  0
 18 19  1  0
 19 20  1  0
 19 21  2  0
 21 22  1  0
 22 23  2  0
 22 24  1  0
 24 25  2  0
 25 26  1  0
 26 27  1  0
 27 28  2  0
 25 29  1  0
 29 30  2  0
 30 31  1  0
 31 32  1  0
 31 33  2  0
 33 34  1  0
 33 35  1  0
 35 36  2  0
 15 37  1  0
 37 38  1  0
 37  2  1  0
 28 17  1  0
 36 29  1  0
 27 21  1  0
  1 39  1  0
  2 40  1  6
  3 41  1  1
  4 42  1  0
  5 43  1  6
  6 44  1  0
  6 45  1  0
 10 46  1  0
 10 47  1  0
 12 48  1  0
 15 49  1  1
 18 50  1  0
 20 51  1  0
 24 52  1  0
 28 53  1  0
 30 54  1  0
 32 55  1  0
 34 56  1  0
 35 57  1  0
 36 58  1  0
 37 59  1  1
 38 60  1  0
M  END
>  <LIG_ID>  (148) 
147

>  <_smiles>  (148) 
O[C@H]1[C@H](O)[C@@H](COC(=O)CC(O)=O)O[C@@H](OC2=CC(O)=C3C(=O)C=C(OC3=C2)C2=CC(O)=C(O)C=C2)[C@@H]1O

>  <_name>  (148) 
Luteolin 7-O-malonyl-glucoside

>  <_molecular_weight>  (148) 
534.423

>  <_formula>  (148) 
C24H22O14

>  <_logP>  (148) 
-0.21890000000000037

>  <_molecular_wt_calculated>  (148) 
534.4260000000012

>  <_havy_atom_count>  (148) 
38

>  <_hydrogen_acceptors>  (148) 
14

>  <_hydrogen_donors>  (148) 
7

>  <_rotatable_bonds>  (148) 
13

>  <_amide_bonds>  (148) 
0

>  <_ring_count>  (148) 
4

$$$$
Luteolin 6-C-glucoside
     RDKit          3D

 52 55  0  0  0  0  0  0  0  0999 V2000
   -2.8987   -0.4298   -0.5991 C   0  0  2  0  0  0  0  0  0  0  0  0
   -3.4445    0.7569   -0.0448 O   0  0  0  0  0  0  0  0  0  0  0  0
   -4.8592    0.7634   -0.1322 C   0  0  2  0  0  0  0  0  0  0  0  0
   -5.3733    2.1293    0.3498 C   0  0  0  0  0  0  0  0  0  0  0  0
   -5.0358    2.3546    1.6931 O   0  0  0  0  0  0  0  0  0  0  0  0
   -5.4586   -0.3950    0.7041 C   0  0  1  0  0  0  0  0  0  0  0  0
   -6.8645   -0.3915    0.6524 O   0  0  0  0  0  0  0  0  0  0  0  0
   -4.9050   -1.7407    0.2071 C   0  0  2  0  0  0  0  0  0  0  0  0
   -5.3341   -2.7634    1.0689 O   0  0  0  0  0  0  0  0  0  0  0  0
   -3.3682   -1.6956    0.1649 C   0  0  1  0  0  0  0  0  0  0  0  0
   -2.8984   -2.8500   -0.4850 O   0  0  0  0  0  0  0  0  0  0  0  0
   -1.3752   -0.3326   -0.6016 C   0  0  0  0  0  0  0  0  0  0  0  0
   -0.6370    0.0893    0.5452 C   0  0  0  0  0  0  0  0  0  0  0  0
   -1.2705    0.4155    1.7511 O   0  0  0  0  0  0  0  0  0  0  0  0
    0.7774    0.1800    0.4799 C   0  0  0  0  0  0  0  0  0  0  0  0
    1.4451   -0.1776   -0.7112 C   0  0  0  0  0  0  0  0  0  0  0  0
    2.7695   -0.1029   -0.7980 O   0  0  0  0  0  0  0  0  0  0  0  0
    3.5468    0.3060    0.2010 C   0  0  0  0  0  0  0  0  0  0  0  0
    2.9619    0.6679    1.4236 C   0  0  0  0  0  0  0  0  0  0  0  0
    1.5753    0.6070    1.5655 C   0  0  0  0  0  0  0  0  0  0  0  0
    1.0652    0.9356    2.6706 O   0  0  0  0  0  0  0  0  0  0  0  0
    5.0160    0.3497   -0.0091 C   0  0  0  0  0  0  0  0  0  0  0  0
    5.8389    1.2498    0.6960 C   0  0  0  0  0  0  0  0  0  0  0  0
    7.2235    1.2779    0.4721 C   0  0  0  0  0  0  0  0  0  0  0  0
    8.0289    2.1715    1.1768 O   0  0  0  0  0  0  0  0  0  0  0  0
    7.7972    0.4063   -0.4677 C   0  0  0  0  0  0  0  0  0  0  0  0
    9.1705    0.4083   -0.7099 O   0  0  0  0  0  0  0  0  0  0  0  0
    6.9831   -0.4790   -1.1789 C   0  0  0  0  0  0  0  0  0  0  0  0
    5.6042   -0.5053   -0.9569 C   0  0  0  0  0  0  0  0  0  0  0  0
    0.7232   -0.6195   -1.8140 C   0  0  0  0  0  0  0  0  0  0  0  0
   -0.6694   -0.7058   -1.7697 C   0  0  0  0  0  0  0  0  0  0  0  0
   -1.3534   -1.1703   -2.8947 O   0  0  0  0  0  0  0  0  0  0  0  0
   -3.2577   -0.5154   -1.6500 H   0  0  0  0  0  0  0  0  0  0  0  0
   -5.1768    0.6590   -1.1963 H   0  0  0  0  0  0  0  0  0  0  0  0
   -4.9536    2.9358   -0.2943 H   0  0  0  0  0  0  0  0  0  0  0  0
   -6.4783    2.1736    0.2470 H   0  0  0  0  0  0  0  0  0  0  0  0
   -4.0829    2.6328    1.7064 H   0  0  0  0  0  0  0  0  0  0  0  0
   -5.1533   -0.2644    1.7663 H   0  0  0  0  0  0  0  0  0  0  0  0
   -7.1316   -0.4792   -0.3000 H   0  0  0  0  0  0  0  0  0  0  0  0
   -5.2923   -1.9261   -0.8239 H   0  0  0  0  0  0  0  0  0  0  0  0
   -5.2472   -3.6169    0.5693 H   0  0  0  0  0  0  0  0  0  0  0  0
   -2.9957   -1.6756    1.2148 H   0  0  0  0  0  0  0  0  0  0  0  0
   -1.9803   -3.0207   -0.1479 H   0  0  0  0  0  0  0  0  0  0  0  0
   -2.2587    0.3261    1.9326 H   0  0  0  0  0  0  0  0  0  0  0  0
    3.5679    0.9688    2.2685 H   0  0  0  0  0  0  0  0  0  0  0  0
    5.4131    1.9504    1.4016 H   0  0  0  0  0  0  0  0  0  0  0  0
    7.6408    2.8117    1.8598 H   0  0  0  0  0  0  0  0  0  0  0  0
    9.8023    1.0311   -0.2209 H   0  0  0  0  0  0  0  0  0  0  0  0
    7.4210   -1.1502   -1.9070 H   0  0  0  0  0  0  0  0  0  0  0  0
    4.9981   -1.2050   -1.5194 H   0  0  0  0  0  0  0  0  0  0  0  0
    1.2516   -0.9007   -2.7169 H   0  0  0  0  0  0  0  0  0  0  0  0
   -0.8674   -1.4453   -3.7404 H   0  0  0  0  0  0  0  0  0  0  0  0
  1  2  1  0
  2  3  1  0
  3  4  1  0
  4  5  1  0
  3  6  1  0
  6  7  1  0
  6  8  1  0
  8  9  1  0
  8 10  1  0
 10 11  1  0
  1 12  1  0
 12 13  2  0
 13 14  1  0
 13 15  1  0
 15 16  2  0
 16 17  1  0
 17 18  1  0
 18 19  2  0
 19 20  1  0
 20 21  2  0
 18 22  1  0
 22 23  2  0
 23 24  1  0
 24 25  1  0
 24 26  2  0
 26 27  1  0
 26 28  1  0
 28 29  2  0
 16 30  1  0
 30 31  2  0
 31 32  1  0
 10  1  1  0
 31 12  1  0
 20 15  1  0
 29 22  1  0
  1 33  1  6
  3 34  1  6
  4 35  1  0
  4 36  1  0
  5 37  1  0
  6 38  1  1
  7 39  1  0
  8 40  1  6
  9 41  1  0
 10 42  1  1
 11 43  1  0
 14 44  1  0
 19 45  1  0
 23 46  1  0
 25 47  1  0
 27 48  1  0
 28 49  1  0
 29 50  1  0
 30 51  1  0
 32 52  1  0
M  END
>  <LIG_ID>  (149) 
148

>  <_smiles>  (149) 
[H][C@]1(O[C@H](CO)[C@@H](O)[C@H](O)[C@H]1O)C1=C(O)C2=C(OC(=CC2=O)C2=CC(O)=C(O)C=C2)C=C1O

>  <_name>  (149) 
Luteolin 6-C-glucoside

>  <_molecular_weight>  (149) 
448.377

>  <_formula>  (149) 
C21H20O11

>  <_logP>  (149) 
-0.20270000000000027

>  <_molecular_wt_calculated>  (149) 
448.3799999999999

>  <_havy_atom_count>  (149) 
32

>  <_hydrogen_acceptors>  (149) 
11

>  <_hydrogen_donors>  (149) 
8

>  <_rotatable_bonds>  (149) 
11

>  <_amide_bonds>  (149) 
0

>  <_ring_count>  (149) 
4

$$$$
Luteolin 7-O-(2-apiosyl-glucoside)
     RDKit          3D

 69 73  0  0  0  0  0  0  0  0999 V2000
    3.5800    0.8684    0.0179 C   0  0  2  0  0  0  0  0  0  0  0  0
    3.3021   -0.1372   -0.9378 O   0  0  0  0  0  0  0  0  0  0  0  0
    3.2323   -1.4236   -0.3397 C   0  0  1  0  0  0  0  0  0  0  0  0
    1.8757   -2.0555   -0.6852 C   0  0  2  0  0  0  0  0  0  0  0  0
    0.8445   -1.1778   -0.2353 O   0  0  0  0  0  0  0  0  0  0  0  0
   -0.5241   -1.3329   -0.5009 C   0  0  0  0  0  0  0  0  0  0  0  0
   -1.0335   -2.4043   -1.2564 C   0  0  0  0  0  0  0  0  0  0  0  0
   -2.4106   -2.5194   -1.4982 C   0  0  0  0  0  0  0  0  0  0  0  0
   -2.8853   -3.5952   -2.2500 O   0  0  0  0  0  0  0  0  0  0  0  0
   -3.2982   -1.5483   -0.9801 C   0  0  0  0  0  0  0  0  0  0  0  0
   -4.6933   -1.5956   -1.1746 C   0  0  0  0  0  0  0  0  0  0  0  0
   -5.2343   -2.5280   -1.8283 O   0  0  0  0  0  0  0  0  0  0  0  0
   -5.4990   -0.5944   -0.6305 C   0  0  0  0  0  0  0  0  0  0  0  0
   -4.9064    0.4484    0.1005 C   0  0  0  0  0  0  0  0  0  0  0  0
   -3.5867    0.4576    0.2741 O   0  0  0  0  0  0  0  0  0  0  0  0
   -2.7781   -0.4726   -0.2237 C   0  0  0  0  0  0  0  0  0  0  0  0
   -1.4040   -0.3755    0.0086 C   0  0  0  0  0  0  0  0  0  0  0  0
   -5.7127    1.5402    0.7029 C   0  0  0  0  0  0  0  0  0  0  0  0
   -6.9426    1.9440    0.1492 C   0  0  0  0  0  0  0  0  0  0  0  0
   -7.6748    2.9819    0.7315 C   0  0  0  0  0  0  0  0  0  0  0  0
   -7.1928    3.6387    1.8669 C   0  0  0  0  0  0  0  0  0  0  0  0
   -7.9474    4.6698    2.4256 O   0  0  0  0  0  0  0  0  0  0  0  0
   -5.9617    3.2554    2.4228 C   0  0  0  0  0  0  0  0  0  0  0  0
   -5.4725    3.9088    3.5530 O   0  0  0  0  0  0  0  0  0  0  0  0
   -5.2267    2.2141    1.8376 C   0  0  0  0  0  0  0  0  0  0  0  0
    1.7144   -3.3137   -0.0500 O   0  0  0  0  0  0  0  0  0  0  0  0
    2.8125   -4.2133   -0.2045 C   0  0  2  0  0  0  0  0  0  0  0  0
    3.3683   -4.5620    1.1865 C   0  0  0  0  0  0  0  0  0  0  0  0
    2.3540   -5.0816    2.0038 O   0  0  0  0  0  0  0  0  0  0  0  0
    3.9493   -3.7481   -1.1646 C   0  0  1  0  0  0  0  0  0  0  0  0
    3.5092   -3.8402   -2.4975 O   0  0  0  0  0  0  0  0  0  0  0  0
    4.3927   -2.2967   -0.8743 C   0  0  2  0  0  0  0  0  0  0  0  0
    5.4477   -2.3073    0.0540 O   0  0  0  0  0  0  0  0  0  0  0  0
    2.4705    1.0458    0.8784 O   0  0  0  0  0  0  0  0  0  0  0  0
    2.0641    2.3909    0.7850 C   0  0  0  0  0  0  0  0  0  0  0  0
    3.2132    3.2091    0.2107 C   0  0  2  0  0  0  0  0  0  0  0  0
    4.0704    3.5728    1.2713 O   0  0  0  0  0  0  0  0  0  0  0  0
    2.6982    4.4578   -0.5415 C   0  0  0  0  0  0  0  0  0  0  0  0
    3.7600    5.1224   -1.1702 O   0  0  0  0  0  0  0  0  0  0  0  0
    3.8622    2.1852   -0.7010 C   0  0  1  0  0  0  0  0  0  0  0  0
    5.2408    2.4094   -0.8492 O   0  0  0  0  0  0  0  0  0  0  0  0
    4.4704    0.5984    0.6337 H   0  0  0  0  0  0  0  0  0  0  0  0
    3.2883   -1.4003    0.7775 H   0  0  0  0  0  0  0  0  0  0  0  0
    1.7839   -2.1626   -1.7890 H   0  0  0  0  0  0  0  0  0  0  0  0
   -0.3702   -3.1557   -1.6619 H   0  0  0  0  0  0  0  0  0  0  0  0
   -2.2613   -4.2988   -2.6276 H   0  0  0  0  0  0  0  0  0  0  0  0
   -6.5723   -0.6513   -0.7584 H   0  0  0  0  0  0  0  0  0  0  0  0
   -1.0151    0.4526    0.5889 H   0  0  0  0  0  0  0  0  0  0  0  0
   -7.3323    1.4806   -0.7469 H   0  0  0  0  0  0  0  0  0  0  0  0
   -8.6185    3.2822    0.2938 H   0  0  0  0  0  0  0  0  0  0  0  0
   -7.6408    5.1767    3.2472 H   0  0  0  0  0  0  0  0  0  0  0  0
   -4.5871    3.6518    3.9735 H   0  0  0  0  0  0  0  0  0  0  0  0
   -4.2804    1.9248    2.2786 H   0  0  0  0  0  0  0  0  0  0  0  0
    2.4023   -5.1586   -0.6231 H   0  0  0  0  0  0  0  0  0  0  0  0
    3.7722   -3.6499    1.6720 H   0  0  0  0  0  0  0  0  0  0  0  0
    4.2010   -5.2972    1.1014 H   0  0  0  0  0  0  0  0  0  0  0  0
    2.2003   -6.0165    1.7072 H   0  0  0  0  0  0  0  0  0  0  0  0
    4.8350   -4.4173   -1.0456 H   0  0  0  0  0  0  0  0  0  0  0  0
    3.5198   -4.8027   -2.7416 H   0  0  0  0  0  0  0  0  0  0  0  0
    4.7692   -1.8659   -1.8335 H   0  0  0  0  0  0  0  0  0  0  0  0
    5.8899   -1.4201   -0.0028 H   0  0  0  0  0  0  0  0  0  0  0  0
    1.7733    2.7644    1.7905 H   0  0  0  0  0  0  0  0  0  0  0  0
    1.1654    2.4369    0.1300 H   0  0  0  0  0  0  0  0  0  0  0  0
    4.7999    4.1361    0.9037 H   0  0  0  0  0  0  0  0  0  0  0  0
    2.2066    5.1434    0.1850 H   0  0  0  0  0  0  0  0  0  0  0  0
    1.9458    4.1627   -1.3080 H   0  0  0  0  0  0  0  0  0  0  0  0
    3.3634    5.9144   -1.6178 H   0  0  0  0  0  0  0  0  0  0  0  0
    3.3610    2.1931   -1.6993 H   0  0  0  0  0  0  0  0  0  0  0  0
    5.5526    1.7813   -1.5518 H   0  0  0  0  0  0  0  0  0  0  0  0
  1  2  1  0
  2  3  1  0
  3  4  1  0
  4  5  1  0
  5  6  1  0
  6  7  2  0
  7  8  1  0
  8  9  1  0
  8 10  2  0
 10 11  1  0
 11 12  2  0
 11 13  1  0
 13 14  2  0
 14 15  1  0
 15 16  1  0
 16 17  2  0
 14 18  1  0
 18 19  2  0
 19 20  1  0
 20 21  2  0
 21 22  1  0
 21 23  1  0
 23 24  1  0
 23 25  2  0
  4 26  1  0
 26 27  1  0
 27 28  1  0
 28 29  1  0
 27 30  1  0
 30 31  1  0
 30 32  1  0
 32 33  1  0
  1 34  1  0
 34 35  1  0
 35 36  1  0
 36 37  1  1
 36 38  1  0
 38 39  1  0
 36 40  1  0
 40 41  1  0
 40  1  1  0
 32  3  1  0
 17  6  1  0
 25 18  1  0
 16 10  1  0
  1 42  1  1
  3 43  1  1
  4 44  1  6
  7 45  1  0
  9 46  1  0
 13 47  1  0
 17 48  1  0
 19 49  1  0
 20 50  1  0
 22 51  1  0
 24 52  1  0
 25 53  1  0
 27 54  1  6
 28 55  1  0
 28 56  1  0
 29 57  1  0
 30 58  1  6
 31 59  1  0
 32 60  1  6
 33 61  1  0
 35 62  1  0
 35 63  1  0
 37 64  1  0
 38 65  1  0
 38 66  1  0
 39 67  1  0
 40 68  1  6
 41 69  1  0
M  END
>  <LIG_ID>  (150) 
149

>  <_smiles>  (150) 
[H][C@@]1(O[C@@]2([H])[C@]([H])(OC3=CC(O)=C4C(=O)C=C(OC4=C3)C3=CC=C(O)C(O)=C3)O[C@]([H])(CO)[C@@]([H])(O)[C@]2([H])O)OC[C@](O)(CO)[C@@]1([H])O

>  <_name>  (150) 
Luteolin 7-O-(2-apiosyl-glucoside)

>  <_molecular_weight>  (150) 
580.492

>  <_formula>  (150) 
C26H28O15

>  <_logP>  (150) 
-1.779600000000001

>  <_molecular_wt_calculated>  (150) 
580.4950000000015

>  <_havy_atom_count>  (150) 
41

>  <_hydrogen_acceptors>  (150) 
15

>  <_hydrogen_donors>  (150) 
9

>  <_rotatable_bonds>  (150) 
16

>  <_amide_bonds>  (150) 
0

>  <_ring_count>  (150) 
5

$$$$
Luteolin 7-O-(2-apiosyl-6-malonyl)-glucoside
     RDKit          3D

 77 81  0  0  0  0  0  0  0  0999 V2000
   -2.8232   -1.5553    1.3212 C   0  0  2  0  0  0  0  0  0  0  0  0
   -2.8264   -0.4116    0.4855 O   0  0  0  0  0  0  0  0  0  0  0  0
   -1.9822    0.6115    0.9932 C   0  0  1  0  0  0  0  0  0  0  0  0
   -1.3530    1.3810   -0.2139 C   0  0  2  0  0  0  0  0  0  0  0  0
    0.0586    1.5115   -0.0284 O   0  0  0  0  0  0  0  0  0  0  0  0
    0.9968    0.4689   -0.1231 C   0  0  0  0  0  0  0  0  0  0  0  0
    0.6567   -0.8232   -0.5555 C   0  0  0  0  0  0  0  0  0  0  0  0
    1.6160   -1.8400   -0.6317 C   0  0  0  0  0  0  0  0  0  0  0  0
    1.1848   -3.0659   -1.1477 O   0  0  0  0  0  0  0  0  0  0  0  0
    2.9540   -1.5779   -0.2157 C   0  0  0  0  0  0  0  0  0  0  0  0
    3.9792   -2.5505   -0.1391 C   0  0  0  0  0  0  0  0  0  0  0  0
    3.7624   -3.7680   -0.3709 O   0  0  0  0  0  0  0  0  0  0  0  0
    5.2676   -2.1714    0.2401 C   0  0  0  0  0  0  0  0  0  0  0  0
    5.5268   -0.8347    0.5728 C   0  0  0  0  0  0  0  0  0  0  0  0
    4.5329    0.0472    0.5466 O   0  0  0  0  0  0  0  0  0  0  0  0
    3.2909   -0.2595    0.1869 C   0  0  0  0  0  0  0  0  0  0  0  0
    2.3188    0.7422    0.2227 C   0  0  0  0  0  0  0  0  0  0  0  0
    6.8786   -0.3763    0.9816 C   0  0  0  0  0  0  0  0  0  0  0  0
    7.0044    0.7458    1.8190 C   0  0  0  0  0  0  0  0  0  0  0  0
    8.2653    1.2018    2.2119 C   0  0  0  0  0  0  0  0  0  0  0  0
    9.4217    0.5503    1.7664 C   0  0  0  0  0  0  0  0  0  0  0  0
   10.6812    1.0014    2.1572 O   0  0  0  0  0  0  0  0  0  0  0  0
    9.3128   -0.5592    0.9201 C   0  0  0  0  0  0  0  0  0  0  0  0
   10.4666   -1.1986    0.4698 O   0  0  0  0  0  0  0  0  0  0  0  0
    8.0472   -1.0186    0.5268 C   0  0  0  0  0  0  0  0  0  0  0  0
   -1.8917    2.6861   -0.3653 O   0  0  0  0  0  0  0  0  0  0  0  0
   -3.3066    2.6366   -0.3887 C   0  0  2  0  0  0  0  0  0  0  0  0
   -3.8452    3.9715   -0.9209 C   0  0  0  0  0  0  0  0  0  0  0  0
   -3.3528    4.2253   -2.2357 O   0  0  0  0  0  0  0  0  0  0  0  0
   -3.8343    3.5761   -3.3782 C   0  0  0  0  0  0  0  0  0  0  0  0
   -4.8077    2.7770   -3.3055 O   0  0  0  0  0  0  0  0  0  0  0  0
   -3.2196    3.8765   -4.7054 C   0  0  0  0  0  0  0  0  0  0  0  0
   -3.8646    5.0844   -5.3021 C   0  0  0  0  0  0  0  0  0  0  0  0
   -3.3870    6.3524   -4.9855 O   0  0  0  0  0  0  0  0  0  0  0  0
   -4.8637    4.9581   -6.0596 O   0  0  0  0  0  0  0  0  0  0  0  0
   -3.8525    2.3414    1.0324 C   0  0  1  0  0  0  0  0  0  0  0  0
   -5.0322    1.5851    0.9208 O   0  0  0  0  0  0  0  0  0  0  0  0
   -2.8068    1.5760    1.8778 C   0  0  2  0  0  0  0  0  0  0  0  0
   -1.9476    2.5020    2.4955 O   0  0  0  0  0  0  0  0  0  0  0  0
   -1.6143   -2.2709    1.1625 O   0  0  0  0  0  0  0  0  0  0  0  0
   -1.9376   -3.5866    0.7792 C   0  0  0  0  0  0  0  0  0  0  0  0
   -3.4002   -3.8517    1.1144 C   0  0  2  0  0  0  0  0  0  0  0  0
   -3.4761   -4.2803    2.4567 O   0  0  0  0  0  0  0  0  0  0  0  0
   -4.0109   -4.9029    0.1584 C   0  0  0  0  0  0  0  0  0  0  0  0
   -5.3772   -5.0728    0.4197 O   0  0  0  0  0  0  0  0  0  0  0  0
   -3.9879   -2.4617    0.9403 C   0  0  1  0  0  0  0  0  0  0  0  0
   -5.0914   -2.2294    1.7786 O   0  0  0  0  0  0  0  0  0  0  0  0
   -2.9247   -1.2774    2.3966 H   0  0  0  0  0  0  0  0  0  0  0  0
   -1.1533    0.1944    1.6153 H   0  0  0  0  0  0  0  0  0  0  0  0
   -1.5278    0.8302   -1.1661 H   0  0  0  0  0  0  0  0  0  0  0  0
   -0.3523   -1.0527   -0.8652 H   0  0  0  0  0  0  0  0  0  0  0  0
    1.7922   -3.7874   -1.5045 H   0  0  0  0  0  0  0  0  0  0  0  0
    6.0414   -2.9251    0.3117 H   0  0  0  0  0  0  0  0  0  0  0  0
    2.5905    1.7407    0.5433 H   0  0  0  0  0  0  0  0  0  0  0  0
    6.1255    1.2649    2.1812 H   0  0  0  0  0  0  0  0  0  0  0  0
    8.3422    2.0627    2.8638 H   0  0  0  0  0  0  0  0  0  0  0  0
   10.7914    1.8024    2.7680 H   0  0  0  0  0  0  0  0  0  0  0  0
   10.4220   -2.0036   -0.1442 H   0  0  0  0  0  0  0  0  0  0  0  0
    7.9876   -1.8589   -0.1518 H   0  0  0  0  0  0  0  0  0  0  0  0
   -3.6538    1.8403   -1.0900 H   0  0  0  0  0  0  0  0  0  0  0  0
   -3.5050    4.7959   -0.2582 H   0  0  0  0  0  0  0  0  0  0  0  0
   -4.9576    3.9711   -0.9239 H   0  0  0  0  0  0  0  0  0  0  0  0
   -2.1324    4.0629   -4.5754 H   0  0  0  0  0  0  0  0  0  0  0  0
   -3.3387    3.0059   -5.3865 H   0  0  0  0  0  0  0  0  0  0  0  0
   -3.8233    7.1823   -5.3689 H   0  0  0  0  0  0  0  0  0  0  0  0
   -4.0832    3.3010    1.5551 H   0  0  0  0  0  0  0  0  0  0  0  0
   -5.5090    1.6623    1.7884 H   0  0  0  0  0  0  0  0  0  0  0  0
   -3.3392    1.0016    2.6707 H   0  0  0  0  0  0  0  0  0  0  0  0
   -1.4773    2.0182    3.2241 H   0  0  0  0  0  0  0  0  0  0  0  0
   -1.2716   -4.3034    1.3062 H   0  0  0  0  0  0  0  0  0  0  0  0
   -1.7472   -3.6845   -0.3130 H   0  0  0  0  0  0  0  0  0  0  0  0
   -4.4256   -4.4761    2.6680 H   0  0  0  0  0  0  0  0  0  0  0  0
   -3.8769   -4.5833   -0.9003 H   0  0  0  0  0  0  0  0  0  0  0  0
   -3.4825   -5.8725    0.2998 H   0  0  0  0  0  0  0  0  0  0  0  0
   -5.6965   -5.7626   -0.2184 H   0  0  0  0  0  0  0  0  0  0  0  0
   -4.2623   -2.2835   -0.1284 H   0  0  0  0  0  0  0  0  0  0  0  0
   -5.8837   -2.6088    1.3174 H   0  0  0  0  0  0  0  0  0  0  0  0
  1  2  1  0
  2  3  1  0
  3  4  1  0
  4  5  1  0
  5  6  1  0
  6  7  2  0
  7  8  1  0
  8  9  1  0
  8 10  2  0
 10 11  1  0
 11 12  2  0
 11 13  1  0
 13 14  2  0
 14 15  1  0
 15 16  1  0
 16 17  2  0
 14 18  1  0
 18 19  2  0
 19 20  1  0
 20 21  2  0
 21 22  1  0
 21 23  1  0
 23 24  1  0
 23 25  2  0
  4 26  1  0
 26 27  1  0
 27 28  1  0
 28 29  1  0
 29 30  1  0
 30 31  2  0
 30 32  1  0
 32 33  1  0
 33 34  1  0
 33 35  2  0
 27 36  1  0
 36 37  1  0
 36 38  1  0
 38 39  1  0
  1 40  1  0
 40 41  1  0
 41 42  1  0
 42 43  1  1
 42 44  1  0
 44 45  1  0
 42 46  1  0
 46 47  1  0
 46  1  1  0
 38  3  1  0
 17  6  1  0
 25 18  1  0
 16 10  1  0
  1 48  1  1
  3 49  1  1
  4 50  1  6
  7 51  1  0
  9 52  1  0
 13 53  1  0
 17 54  1  0
 19 55  1  0
 20 56  1  0
 22 57  1  0
 24 58  1  0
 25 59  1  0
 27 60  1  6
 28 61  1  0
 28 62  1  0
 32 63  1  0
 32 64  1  0
 34 65  1  0
 36 66  1  1
 37 67  1  0
 38 68  1  1
 39 69  1  0
 41 70  1  0
 41 71  1  0
 43 72  1  0
 44 73  1  0
 44 74  1  0
 45 75  1  0
 46 76  1  6
 47 77  1  0
M  END
>  <LIG_ID>  (151) 
150

>  <_smiles>  (151) 
[H][C@@]1(O[C@@]2([H])[C@]([H])(OC3=CC(O)=C4C(=O)C=C(OC4=C3)C3=CC=C(O)C(O)=C3)O[C@]([H])(COC(=O)CC(O)=O)[C@@]([H])(O)[C@]2([H])O)OC[C@](O)(CO)[C@@]1([H])O

>  <_name>  (151) 
Luteolin 7-O-(2-apiosyl-6-malonyl)-glucoside

>  <_molecular_weight>  (151) 
666.538

>  <_formula>  (151) 
C29H30O18

>  <_logP>  (151) 
-1.7539999999999998

>  <_molecular_wt_calculated>  (151) 
666.5410000000015

>  <_havy_atom_count>  (151) 
47

>  <_hydrogen_acceptors>  (151) 
18

>  <_hydrogen_donors>  (151) 
9

>  <_rotatable_bonds>  (151) 
18

>  <_amide_bonds>  (151) 
0

>  <_ring_count>  (151) 
5

$$$$
Apigenin 7-O-apiosyl-glucoside
     RDKit          3D

 68 72  0  0  0  0  0  0  0  0999 V2000
   -2.5405   -6.6829    0.1942 O   0  0  0  0  0  0  0  0  0  0  0  0
   -1.8516   -5.6214   -0.4073 C   0  0  0  0  0  0  0  0  0  0  0  0
   -2.3148   -4.2799    0.1771 C   0  0  1  0  0  0  0  0  0  0  0  0
   -1.4344   -3.2734   -0.2934 O   0  0  0  0  0  0  0  0  0  0  0  0
   -1.7114   -2.0364    0.3384 C   0  0  1  0  0  0  0  0  0  0  0  0
   -0.7276   -1.0820   -0.0560 O   0  0  0  0  0  0  0  0  0  0  0  0
    0.6321   -1.1371    0.2841 C   0  0  0  0  0  0  0  0  0  0  0  0
    1.1779   -2.1761    1.0593 C   0  0  0  0  0  0  0  0  0  0  0  0
    2.5444   -2.1917    1.3761 C   0  0  0  0  0  0  0  0  0  0  0  0
    3.0560   -3.2378    2.1453 O   0  0  0  0  0  0  0  0  0  0  0  0
    3.3842   -1.1518    0.9149 C   0  0  0  0  0  0  0  0  0  0  0  0
    4.7660   -1.0978    1.1862 C   0  0  0  0  0  0  0  0  0  0  0  0
    5.3384   -1.9948    1.8624 O   0  0  0  0  0  0  0  0  0  0  0  0
    5.5235   -0.0338    0.6947 C   0  0  0  0  0  0  0  0  0  0  0  0
    4.8958    0.9703   -0.0609 C   0  0  0  0  0  0  0  0  0  0  0  0
    3.5906    0.8837   -0.3075 O   0  0  0  0  0  0  0  0  0  0  0  0
    2.8275   -0.1093    0.1382 C   0  0  0  0  0  0  0  0  0  0  0  0
    1.4648   -0.1117   -0.1693 C   0  0  0  0  0  0  0  0  0  0  0  0
    5.6502    2.1253   -0.6099 C   0  0  0  0  0  0  0  0  0  0  0  0
    5.1759    2.7765   -1.7633 C   0  0  0  0  0  0  0  0  0  0  0  0
    5.8628    3.8717   -2.2952 C   0  0  0  0  0  0  0  0  0  0  0  0
    7.0289    4.3390   -1.6770 C   0  0  0  0  0  0  0  0  0  0  0  0
    7.7217    5.4293   -2.1982 O   0  0  0  0  0  0  0  0  0  0  0  0
    7.5014    3.7079   -0.5234 C   0  0  0  0  0  0  0  0  0  0  0  0
    6.8179    2.6115    0.0115 C   0  0  0  0  0  0  0  0  0  0  0  0
   -3.0928   -1.5220   -0.0947 C   0  0  2  0  0  0  0  0  0  0  0  0
   -3.3616   -0.3045    0.5843 O   0  0  0  0  0  0  0  0  0  0  0  0
   -3.6169    0.7527   -0.3222 C   0  0  2  0  0  0  0  0  0  0  0  0
   -2.4517    1.0692   -1.0603 O   0  0  0  0  0  0  0  0  0  0  0  0
   -2.2845    2.4703   -1.0387 C   0  0  0  0  0  0  0  0  0  0  0  0
   -3.5377    3.1202   -0.4558 C   0  0  2  0  0  0  0  0  0  0  0  0
   -4.4357    3.3737   -1.5132 O   0  0  0  0  0  0  0  0  0  0  0  0
   -3.2117    4.4372    0.2883 C   0  0  0  0  0  0  0  0  0  0  0  0
   -4.3545    4.9243    0.9373 O   0  0  0  0  0  0  0  0  0  0  0  0
   -4.0712    2.0026    0.4312 C   0  0  2  0  0  0  0  0  0  0  0  0
   -3.5417    2.0513    1.7388 O   0  0  0  0  0  0  0  0  0  0  0  0
   -4.1622   -2.5563    0.2867 C   0  0  1  0  0  0  0  0  0  0  0  0
   -5.3951   -2.1639   -0.2601 O   0  0  0  0  0  0  0  0  0  0  0  0
   -3.7707   -3.9523   -0.2390 C   0  0  2  0  0  0  0  0  0  0  0  0
   -4.6454   -4.9153    0.2920 O   0  0  0  0  0  0  0  0  0  0  0  0
   -2.2030   -7.5102   -0.2377 H   0  0  0  0  0  0  0  0  0  0  0  0
   -2.0155   -5.6339   -1.5086 H   0  0  0  0  0  0  0  0  0  0  0  0
   -0.7615   -5.7405   -0.2147 H   0  0  0  0  0  0  0  0  0  0  0  0
   -2.2485   -4.3620    1.2883 H   0  0  0  0  0  0  0  0  0  0  0  0
   -1.6829   -2.1317    1.4500 H   0  0  0  0  0  0  0  0  0  0  0  0
    0.5511   -2.9790    1.4221 H   0  0  0  0  0  0  0  0  0  0  0  0
    2.4665   -3.9900    2.4824 H   0  0  0  0  0  0  0  0  0  0  0  0
    6.5894   -0.0126    0.8816 H   0  0  0  0  0  0  0  0  0  0  0  0
    1.0475    0.6918   -0.7644 H   0  0  0  0  0  0  0  0  0  0  0  0
    4.2785    2.4310   -2.2618 H   0  0  0  0  0  0  0  0  0  0  0  0
    5.4875    4.3562   -3.1876 H   0  0  0  0  0  0  0  0  0  0  0  0
    7.4041    5.9088   -3.0325 H   0  0  0  0  0  0  0  0  0  0  0  0
    8.3966    4.0723   -0.0355 H   0  0  0  0  0  0  0  0  0  0  0  0
    7.1938    2.1669    0.9228 H   0  0  0  0  0  0  0  0  0  0  0  0
   -3.0825   -1.4282   -1.2098 H   0  0  0  0  0  0  0  0  0  0  0  0
   -4.4281    0.4683   -1.0339 H   0  0  0  0  0  0  0  0  0  0  0  0
   -1.3865    2.7002   -0.4239 H   0  0  0  0  0  0  0  0  0  0  0  0
   -2.0884    2.8375   -2.0693 H   0  0  0  0  0  0  0  0  0  0  0  0
   -5.2799    3.7206   -1.1222 H   0  0  0  0  0  0  0  0  0  0  0  0
   -2.8538    5.1901   -0.4496 H   0  0  0  0  0  0  0  0  0  0  0  0
   -2.4015    4.2795    1.0351 H   0  0  0  0  0  0  0  0  0  0  0  0
   -4.0818    5.7706    1.3781 H   0  0  0  0  0  0  0  0  0  0  0  0
   -5.1807    2.0314    0.5040 H   0  0  0  0  0  0  0  0  0  0  0  0
   -2.5570    1.9332    1.6838 H   0  0  0  0  0  0  0  0  0  0  0  0
   -4.2327   -2.5931    1.4013 H   0  0  0  0  0  0  0  0  0  0  0  0
   -6.1044   -2.5762    0.2988 H   0  0  0  0  0  0  0  0  0  0  0  0
   -3.8275   -3.9496   -1.3545 H   0  0  0  0  0  0  0  0  0  0  0  0
   -5.4452   -4.9356   -0.2957 H   0  0  0  0  0  0  0  0  0  0  0  0
  1  2  1  0
  2  3  1  0
  3  4  1  0
  4  5  1  0
  5  6  1  0
  6  7  1  0
  7  8  2  0
  8  9  1  0
  9 10  1  0
  9 11  2  0
 11 12  1  0
 12 13  2  0
 12 14  1  0
 14 15  2  0
 15 16  1  0
 16 17  1  0
 17 18  2  0
 15 19  1  0
 19 20  2  0
 20 21  1  0
 21 22  2  0
 22 23  1  0
 22 24  1  0
 24 25  2  0
  5 26  1  0
 26 27  1  0
 27 28  1  0
 28 29  1  0
 29 30  1  0
 30 31  1  0
 31 32  1  6
 31 33  1  0
 33 34  1  0
 31 35  1  0
 35 36  1  0
 26 37  1  0
 37 38  1  0
 37 39  1  0
 39 40  1  0
 39  3  1  0
 18  7  1  0
 25 19  1  0
 35 28  1  0
 17 11  1  0
  1 41  1  0
  2 42  1  0
  2 43  1  0
  3 44  1  1
  5 45  1  1
  8 46  1  0
 10 47  1  0
 14 48  1  0
 18 49  1  0
 20 50  1  0
 21 51  1  0
 23 52  1  0
 24 53  1  0
 25 54  1  0
 26 55  1  6
 28 56  1  6
 30 57  1  0
 30 58  1  0
 32 59  1  0
 33 60  1  0
 33 61  1  0
 34 62  1  0
 35 63  1  1
 36 64  1  0
 37 65  1  1
 38 66  1  0
 39 67  1  6
 40 68  1  0
M  END
>  <LIG_ID>  (152) 
151

>  <_smiles>  (152) 
OC[C@H]1O[C@@H](OC2=CC(O)=C3C(=O)C=C(OC3=C2)C2=CC=C(O)C=C2)[C@H](O[C@@H]2OC[C@](O)(CO)[C@@H]2O)[C@@H](O)[C@@H]1O

>  <_name>  (152) 
Apigenin 7-O-apiosyl-glucoside

>  <_molecular_weight>  (152) 
564.492

>  <_formula>  (152) 
C26H28O14

>  <_logP>  (152) 
-1.4852000000000012

>  <_molecular_wt_calculated>  (152) 
564.4960000000015

>  <_havy_atom_count>  (152) 
40

>  <_hydrogen_acceptors>  (152) 
14

>  <_hydrogen_donors>  (152) 
8

>  <_rotatable_bonds>  (152) 
15

>  <_amide_bonds>  (152) 
0

>  <_ring_count>  (152) 
5

$$$$
7,3',4'-Trihydroxyflavone
     RDKit          3D

 30 32  0  0  0  0  0  0  0  0999 V2000
    5.2503   -0.4810    1.9080 O   0  0  0  0  0  0  0  0  0  0  0  0
    4.3352   -0.2784    0.8774 C   0  0  0  0  0  0  0  0  0  0  0  0
    2.9659   -0.2695    1.1632 C   0  0  0  0  0  0  0  0  0  0  0  0
    2.0329   -0.0678    0.1403 C   0  0  0  0  0  0  0  0  0  0  0  0
    2.4730    0.1288   -1.1873 C   0  0  0  0  0  0  0  0  0  0  0  0
    3.8508    0.1192   -1.4688 C   0  0  0  0  0  0  0  0  0  0  0  0
    4.7749   -0.0841   -0.4394 C   0  0  0  0  0  0  0  0  0  0  0  0
    1.5050    0.3335   -2.1824 C   0  0  0  0  0  0  0  0  0  0  0  0
    1.8380    0.5242   -3.3838 O   0  0  0  0  0  0  0  0  0  0  0  0
    0.1533    0.3305   -1.8347 C   0  0  0  0  0  0  0  0  0  0  0  0
   -0.2137    0.1185   -0.4933 C   0  0  0  0  0  0  0  0  0  0  0  0
    0.7344   -0.0629    0.4255 O   0  0  0  0  0  0  0  0  0  0  0  0
   -1.6350    0.1060   -0.0637 C   0  0  0  0  0  0  0  0  0  0  0  0
   -2.6691   -0.2809   -0.9366 C   0  0  0  0  0  0  0  0  0  0  0  0
   -4.0041   -0.2968   -0.5122 C   0  0  0  0  0  0  0  0  0  0  0  0
   -4.9760   -0.6934   -1.4332 O   0  0  0  0  0  0  0  0  0  0  0  0
   -4.3184    0.0779    0.8150 C   0  0  0  0  0  0  0  0  0  0  0  0
   -5.6255    0.0944    1.3060 O   0  0  0  0  0  0  0  0  0  0  0  0
   -3.2884    0.4481    1.6852 C   0  0  0  0  0  0  0  0  0  0  0  0
   -1.9606    0.4581    1.2553 C   0  0  0  0  0  0  0  0  0  0  0  0
    6.2487   -0.4932    1.7348 H   0  0  0  0  0  0  0  0  0  0  0  0
    2.6273   -0.4199    2.1809 H   0  0  0  0  0  0  0  0  0  0  0  0
    4.2143    0.2683   -2.4782 H   0  0  0  0  0  0  0  0  0  0  0  0
    5.8335   -0.0898   -0.6660 H   0  0  0  0  0  0  0  0  0  0  0  0
   -0.5903    0.5177   -2.5986 H   0  0  0  0  0  0  0  0  0  0  0  0
   -2.4481   -0.5996   -1.9466 H   0  0  0  0  0  0  0  0  0  0  0  0
   -5.9625   -0.7486   -1.2249 H   0  0  0  0  0  0  0  0  0  0  0  0
   -6.4381   -0.1465    0.7570 H   0  0  0  0  0  0  0  0  0  0  0  0
   -3.5199    0.7322    2.7042 H   0  0  0  0  0  0  0  0  0  0  0  0
   -1.1878    0.7551    1.9537 H   0  0  0  0  0  0  0  0  0  0  0  0
  1  2  1  0
  2  3  2  0
  3  4  1  0
  4  5  2  0
  5  6  1  0
  6  7  2  0
  5  8  1  0
  8  9  2  0
  8 10  1  0
 10 11  2  0
 11 12  1  0
 11 13  1  0
 13 14  2  0
 14 15  1  0
 15 16  1  0
 15 17  2  0
 17 18  1  0
 17 19  1  0
 19 20  2  0
  7  2  1  0
 20 13  1  0
 12  4  1  0
  1 21  1  0
  3 22  1  0
  6 23  1  0
  7 24  1  0
 10 25  1  0
 14 26  1  0
 16 27  1  0
 18 28  1  0
 19 29  1  0
 20 30  1  0
M  END
>  <LIG_ID>  (153) 
152

>  <_smiles>  (153) 
OC1=CC2=C(C=C1)C(=O)C=C(O2)C1=CC(O)=C(O)C=C1

>  <_name>  (153) 
7,3',4'-Trihydroxyflavone

>  <_molecular_weight>  (153) 
270.237

>  <_formula>  (153) 
C15H10O5

>  <_logP>  (153) 
2.5768000000000013

>  <_molecular_wt_calculated>  (153) 
270.2399999999998

>  <_havy_atom_count>  (153) 
20

>  <_hydrogen_acceptors>  (153) 
5

>  <_hydrogen_donors>  (153) 
3

>  <_rotatable_bonds>  (153) 
4

>  <_amide_bonds>  (153) 
0

>  <_ring_count>  (153) 
3

$$$$
7,4'-Dihydroxyflavone
     RDKit          3D

 29 31  0  0  0  0  0  0  0  0999 V2000
    5.8453    1.0924    0.1537 O   0  0  0  0  0  0  0  0  0  0  0  0
    4.5085    0.7008    0.1458 C   0  0  0  0  0  0  0  0  0  0  0  0
    4.0832   -0.4044    0.8928 C   0  0  0  0  0  0  0  0  0  0  0  0
    2.7392   -0.7900    0.8770 C   0  0  0  0  0  0  0  0  0  0  0  0
    1.8006   -0.0771    0.1047 C   0  0  0  0  0  0  0  0  0  0  0  0
    2.2377    1.0396   -0.6310 C   0  0  0  0  0  0  0  0  0  0  0  0
    3.5825    1.4210   -0.6132 C   0  0  0  0  0  0  0  0  0  0  0  0
    0.3650   -0.4550    0.0750 C   0  0  0  0  0  0  0  0  0  0  0  0
   -0.0582   -1.7784    0.2953 C   0  0  0  0  0  0  0  0  0  0  0  0
   -1.4209   -2.0773    0.2545 C   0  0  0  0  0  0  0  0  0  0  0  0
   -1.8039   -3.2628    0.4506 O   0  0  0  0  0  0  0  0  0  0  0  0
   -2.3434   -1.0534   -0.0090 C   0  0  0  0  0  0  0  0  0  0  0  0
   -1.8471    0.2503   -0.2303 C   0  0  0  0  0  0  0  0  0  0  0  0
   -0.5401    0.4890   -0.1816 O   0  0  0  0  0  0  0  0  0  0  0  0
   -2.7329    1.2986   -0.5021 C   0  0  0  0  0  0  0  0  0  0  0  0
   -4.1132    1.0601   -0.5548 C   0  0  0  0  0  0  0  0  0  0  0  0
   -5.0025    2.0980   -0.8244 O   0  0  0  0  0  0  0  0  0  0  0  0
   -4.6062   -0.2306   -0.3353 C   0  0  0  0  0  0  0  0  0  0  0  0
   -3.7294   -1.2853   -0.0638 C   0  0  0  0  0  0  0  0  0  0  0  0
    6.5406    0.5914    0.6946 H   0  0  0  0  0  0  0  0  0  0  0  0
    4.7920   -0.9616    1.4923 H   0  0  0  0  0  0  0  0  0  0  0  0
    2.4384   -1.6289    1.4897 H   0  0  0  0  0  0  0  0  0  0  0  0
    1.5407    1.6120   -1.2307 H   0  0  0  0  0  0  0  0  0  0  0  0
    3.9053    2.2782   -1.1904 H   0  0  0  0  0  0  0  0  0  0  0  0
    0.6533   -2.5751    0.4699 H   0  0  0  0  0  0  0  0  0  0  0  0
   -2.3487    2.2968   -0.6715 H   0  0  0  0  0  0  0  0  0  0  0  0
   -4.6783    3.0440   -0.9880 H   0  0  0  0  0  0  0  0  0  0  0  0
   -5.6720   -0.4164   -0.3759 H   0  0  0  0  0  0  0  0  0  0  0  0
   -4.1355   -2.2757    0.1015 H   0  0  0  0  0  0  0  0  0  0  0  0
  1  2  1  0
  2  3  2  0
  3  4  1  0
  4  5  2  0
  5  6  1  0
  6  7  2  0
  5  8  1  0
  8  9  2  0
  9 10  1  0
 10 11  2  0
 10 12  1  0
 12 13  2  0
 13 14  1  0
 13 15  1  0
 15 16  2  0
 16 17  1  0
 16 18  1  0
 18 19  2  0
  7  2  1  0
 14  8  1  0
 19 12  1  0
  1 20  1  0
  3 21  1  0
  4 22  1  0
  6 23  1  0
  7 24  1  0
  9 25  1  0
 15 26  1  0
 17 27  1  0
 18 28  1  0
 19 29  1  0
M  END
>  <LIG_ID>  (154) 
153

>  <_smiles>  (154) 
OC1=CC=C(C=C1)C1=CC(=O)C2=C(O1)C=C(O)C=C2

>  <_name>  (154) 
7,4'-Dihydroxyflavone

>  <_molecular_weight>  (154) 
254.238

>  <_formula>  (154) 
C15H10O4

>  <_logP>  (154) 
2.871200000000001

>  <_molecular_wt_calculated>  (154) 
254.24100000000004

>  <_havy_atom_count>  (154) 
19

>  <_hydrogen_acceptors>  (154) 
4

>  <_hydrogen_donors>  (154) 
2

>  <_rotatable_bonds>  (154) 
3

>  <_amide_bonds>  (154) 
0

>  <_ring_count>  (154) 
3

$$$$
Geraldone
     RDKit          3D

 33 35  0  0  0  0  0  0  0  0999 V2000
   -3.7520   -2.2299   -0.8747 C   0  0  0  0  0  0  0  0  0  0  0  0
   -4.2320   -1.1052   -0.1449 O   0  0  0  0  0  0  0  0  0  0  0  0
   -3.4191   -0.0826    0.3703 C   0  0  0  0  0  0  0  0  0  0  0  0
   -4.0236    0.9729    1.0755 C   0  0  0  0  0  0  0  0  0  0  0  0
   -5.4047    1.0152    1.2658 O   0  0  0  0  0  0  0  0  0  0  0  0
   -3.2387    2.0013    1.6027 C   0  0  0  0  0  0  0  0  0  0  0  0
   -1.8535    1.9947    1.4319 C   0  0  0  0  0  0  0  0  0  0  0  0
   -1.2283    0.9558    0.7193 C   0  0  0  0  0  0  0  0  0  0  0  0
   -2.0199   -0.0848    0.2011 C   0  0  0  0  0  0  0  0  0  0  0  0
    0.2443    0.9171    0.5315 C   0  0  0  0  0  0  0  0  0  0  0  0
    1.0180    2.0915    0.4969 C   0  0  0  0  0  0  0  0  0  0  0  0
    2.3987    1.9967    0.3161 C   0  0  0  0  0  0  0  0  0  0  0  0
    3.0956    3.0474    0.2835 O   0  0  0  0  0  0  0  0  0  0  0  0
    2.9891    0.7323    0.1686 C   0  0  0  0  0  0  0  0  0  0  0  0
    2.1502   -0.4034    0.2039 C   0  0  0  0  0  0  0  0  0  0  0  0
    0.8395   -0.2654    0.3787 O   0  0  0  0  0  0  0  0  0  0  0  0
    2.6981   -1.6820    0.0548 C   0  0  0  0  0  0  0  0  0  0  0  0
    4.0756   -1.8423   -0.1286 C   0  0  0  0  0  0  0  0  0  0  0  0
    4.6044   -3.1227   -0.2751 O   0  0  0  0  0  0  0  0  0  0  0  0
    4.9108   -0.7170   -0.1636 C   0  0  0  0  0  0  0  0  0  0  0  0
    4.3732    0.5653   -0.0164 C   0  0  0  0  0  0  0  0  0  0  0  0
   -3.0543   -2.8233   -0.2467 H   0  0  0  0  0  0  0  0  0  0  0  0
   -3.2419   -1.8940   -1.8021 H   0  0  0  0  0  0  0  0  0  0  0  0
   -4.6110   -2.8730   -1.1554 H   0  0  0  0  0  0  0  0  0  0  0  0
   -6.0217    0.2966    0.9067 H   0  0  0  0  0  0  0  0  0  0  0  0
   -3.7054    2.8074    2.1547 H   0  0  0  0  0  0  0  0  0  0  0  0
   -1.2765    2.7915    1.8814 H   0  0  0  0  0  0  0  0  0  0  0  0
   -1.5426   -0.8881   -0.3439 H   0  0  0  0  0  0  0  0  0  0  0  0
    0.5609    3.0690    0.5815 H   0  0  0  0  0  0  0  0  0  0  0  0
    2.0537   -2.5521    0.0817 H   0  0  0  0  0  0  0  0  0  0  0  0
    5.5974   -3.2734   -0.4095 H   0  0  0  0  0  0  0  0  0  0  0  0
    5.9775   -0.8354   -0.3054 H   0  0  0  0  0  0  0  0  0  0  0  0
    5.0382    1.4198   -0.0480 H   0  0  0  0  0  0  0  0  0  0  0  0
  1  2  1  0
  2  3  1  0
  3  4  2  0
  4  5  1  0
  4  6  1  0
  6  7  2  0
  7  8  1  0
  8  9  2  0
  8 10  1  0
 10 11  2  0
 11 12  1  0
 12 13  2  0
 12 14  1  0
 14 15  2  0
 15 16  1  0
 15 17  1  0
 17 18  2  0
 18 19  1  0
 18 20  1  0
 20 21  2  0
  9  3  1  0
 16 10  1  0
 21 14  1  0
  1 22  1  0
  1 23  1  0
  1 24  1  0
  5 25  1  0
  6 26  1  0
  7 27  1  0
  9 28  1  0
 11 29  1  0
 17 30  1  0
 19 31  1  0
 20 32  1  0
 21 33  1  0
M  END
>  <LIG_ID>  (155) 
154

>  <_smiles>  (155) 
COC1=C(O)C=CC(=C1)C1=CC(=O)C2=C(O1)C=C(O)C=C2

>  <_name>  (155) 
Geraldone

>  <_molecular_weight>  (155) 
284.263

>  <_formula>  (155) 
C16H12O5

>  <_logP>  (155) 
2.8798000000000012

>  <_molecular_wt_calculated>  (155) 
284.26699999999977

>  <_havy_atom_count>  (155) 
21

>  <_hydrogen_acceptors>  (155) 
5

>  <_hydrogen_donors>  (155) 
2

>  <_rotatable_bonds>  (155) 
5

>  <_amide_bonds>  (155) 
0

>  <_ring_count>  (155) 
3

$$$$
Baicalein
     RDKit          3D

 30 32  0  0  0  0  0  0  0  0999 V2000
   -4.2950    2.4708   -0.2312 O   0  0  0  0  0  0  0  0  0  0  0  0
   -3.4731    1.3462   -0.1685 C   0  0  0  0  0  0  0  0  0  0  0  0
   -4.0380    0.0662   -0.0970 C   0  0  0  0  0  0  0  0  0  0  0  0
   -5.4251   -0.0937   -0.0878 O   0  0  0  0  0  0  0  0  0  0  0  0
   -3.2222   -1.0760   -0.0333 C   0  0  0  0  0  0  0  0  0  0  0  0
   -3.8909   -2.3045    0.0354 O   0  0  0  0  0  0  0  0  0  0  0  0
   -1.7982   -0.9316   -0.0416 C   0  0  0  0  0  0  0  0  0  0  0  0
   -0.8686   -1.9993    0.0179 C   0  0  0  0  0  0  0  0  0  0  0  0
   -1.2319   -3.2009    0.0851 O   0  0  0  0  0  0  0  0  0  0  0  0
    0.5021   -1.7341    0.0029 C   0  0  0  0  0  0  0  0  0  0  0  0
    0.9570   -0.4078   -0.0712 C   0  0  0  0  0  0  0  0  0  0  0  0
    0.0605    0.5721   -0.1258 O   0  0  0  0  0  0  0  0  0  0  0  0
   -1.2533    0.3768   -0.1147 C   0  0  0  0  0  0  0  0  0  0  0  0
   -2.0870    1.4931   -0.1769 C   0  0  0  0  0  0  0  0  0  0  0  0
    2.4069   -0.0409   -0.0919 C   0  0  0  0  0  0  0  0  0  0  0  0
    2.7666    1.3216   -0.1681 C   0  0  0  0  0  0  0  0  0  0  0  0
    4.1093    1.7093   -0.1899 C   0  0  0  0  0  0  0  0  0  0  0  0
    5.1171    0.7473   -0.1364 C   0  0  0  0  0  0  0  0  0  0  0  0
    4.7842   -0.6048   -0.0608 C   0  0  0  0  0  0  0  0  0  0  0  0
    3.4431   -1.0013   -0.0385 C   0  0  0  0  0  0  0  0  0  0  0  0
   -3.9117    3.4074   -0.2836 H   0  0  0  0  0  0  0  0  0  0  0  0
   -6.0613    0.6934   -0.1317 H   0  0  0  0  0  0  0  0  0  0  0  0
   -3.4680   -3.2160    0.0861 H   0  0  0  0  0  0  0  0  0  0  0  0
    1.1815   -2.5711    0.0496 H   0  0  0  0  0  0  0  0  0  0  0  0
   -1.6511    2.4833   -0.2323 H   0  0  0  0  0  0  0  0  0  0  0  0
    2.0103    2.0952   -0.2112 H   0  0  0  0  0  0  0  0  0  0  0  0
    4.3679    2.7588   -0.2486 H   0  0  0  0  0  0  0  0  0  0  0  0
    6.1562    1.0496   -0.1534 H   0  0  0  0  0  0  0  0  0  0  0  0
    5.5682   -1.3502   -0.0193 H   0  0  0  0  0  0  0  0  0  0  0  0
    3.2444   -2.0590    0.0206 H   0  0  0  0  0  0  0  0  0  0  0  0
  1  2  1  0
  2  3  2  0
  3  4  1  0
  3  5  1  0
  5  6  1  0
  5  7  2  0
  7  8  1  0
  8  9  2  0
  8 10  1  0
 10 11  2  0
 11 12  1  0
 12 13  1  0
 13 14  2  0
 11 15  1  0
 15 16  2  0
 16 17  1  0
 17 18  2  0
 18 19  1  0
 19 20  2  0
 14  2  1  0
 20 15  1  0
 13  7  1  0
  1 21  1  0
  4 22  1  0
  6 23  1  0
 10 24  1  0
 14 25  1  0
 16 26  1  0
 17 27  1  0
 18 28  1  0
 19 29  1  0
 20 30  1  0
M  END
>  <LIG_ID>  (156) 
155

>  <_smiles>  (156) 
OC1=C(O)C(O)=C2C(=O)C=C(OC2=C1)C1=CC=CC=C1

>  <_name>  (156) 
Baicalein

>  <_molecular_weight>  (156) 
270.237

>  <_formula>  (156) 
C15H10O5

>  <_logP>  (156) 
2.5768000000000004

>  <_molecular_wt_calculated>  (156) 
270.2399999999998

>  <_havy_atom_count>  (156) 
20

>  <_hydrogen_acceptors>  (156) 
5

>  <_hydrogen_donors>  (156) 
3

>  <_rotatable_bonds>  (156) 
4

>  <_amide_bonds>  (156) 
0

>  <_ring_count>  (156) 
3

$$$$
Apigenin 6-C-glucoside
     RDKit          3D

 51 54  0  0  0  0  0  0  0  0999 V2000
   -2.6757   -0.3154    0.2043 C   0  0  2  0  0  0  0  0  0  0  0  0
   -3.1983   -0.8233   -1.0134 O   0  0  0  0  0  0  0  0  0  0  0  0
   -4.5869   -1.0948   -0.9039 C   0  0  2  0  0  0  0  0  0  0  0  0
   -5.0306   -1.7946   -2.1997 C   0  0  0  0  0  0  0  0  0  0  0  0
   -6.3469   -2.2684   -2.0991 O   0  0  0  0  0  0  0  0  0  0  0  0
   -5.3753    0.2183   -0.6723 C   0  0  1  0  0  0  0  0  0  0  0  0
   -6.7419   -0.0653   -0.5128 O   0  0  0  0  0  0  0  0  0  0  0  0
   -4.8464    0.9214    0.5944 C   0  0  2  0  0  0  0  0  0  0  0  0
   -5.4524    2.1789    0.7657 O   0  0  0  0  0  0  0  0  0  0  0  0
   -3.3118    1.0563    0.5358 C   0  0  1  0  0  0  0  0  0  0  0  0
   -2.8126    1.5715    1.7460 O   0  0  0  0  0  0  0  0  0  0  0  0
   -1.1615   -0.1771    0.0853 C   0  0  0  0  0  0  0  0  0  0  0  0
   -0.3154   -0.5943    1.1445 C   0  0  0  0  0  0  0  0  0  0  0  0
   -0.9087   -1.2239    2.2448 O   0  0  0  0  0  0  0  0  0  0  0  0
    1.0938   -0.3904    1.0523 C   0  0  0  0  0  0  0  0  0  0  0  0
    1.6300    0.1394   -0.1465 C   0  0  0  0  0  0  0  0  0  0  0  0
    2.9407    0.3002   -0.2969 O   0  0  0  0  0  0  0  0  0  0  0  0
    3.8281    0.0058    0.6472 C   0  0  0  0  0  0  0  0  0  0  0  0
    3.3778   -0.4625    1.8885 C   0  0  0  0  0  0  0  0  0  0  0  0
    2.0107   -0.6417    2.1024 C   0  0  0  0  0  0  0  0  0  0  0  0
    1.6307   -0.9873    3.2514 O   0  0  0  0  0  0  0  0  0  0  0  0
    5.2707    0.2125    0.3627 C   0  0  0  0  0  0  0  0  0  0  0  0
    5.6575    1.1578   -0.6049 C   0  0  0  0  0  0  0  0  0  0  0  0
    7.0089    1.3645   -0.8968 C   0  0  0  0  0  0  0  0  0  0  0  0
    7.9931    0.6254   -0.2356 C   0  0  0  0  0  0  0  0  0  0  0  0
    9.3357    0.8424   -0.5366 O   0  0  0  0  0  0  0  0  0  0  0  0
    7.6200   -0.3278    0.7198 C   0  0  0  0  0  0  0  0  0  0  0  0
    6.2695   -0.5371    1.0156 C   0  0  0  0  0  0  0  0  0  0  0  0
    0.7904    0.5181   -1.1897 C   0  0  0  0  0  0  0  0  0  0  0  0
   -0.5937    0.3934   -1.0741 C   0  0  0  0  0  0  0  0  0  0  0  0
   -1.4081    0.8341   -2.1185 O   0  0  0  0  0  0  0  0  0  0  0  0
   -2.9190   -1.0306    1.0222 H   0  0  0  0  0  0  0  0  0  0  0  0
   -4.7755   -1.8016   -0.0615 H   0  0  0  0  0  0  0  0  0  0  0  0
   -4.9674   -1.0856   -3.0528 H   0  0  0  0  0  0  0  0  0  0  0  0
   -4.3420   -2.6417   -2.4226 H   0  0  0  0  0  0  0  0  0  0  0  0
   -6.3153   -3.0767   -1.5235 H   0  0  0  0  0  0  0  0  0  0  0  0
   -5.2206    0.8816   -1.5569 H   0  0  0  0  0  0  0  0  0  0  0  0
   -7.2349    0.7735   -0.7099 H   0  0  0  0  0  0  0  0  0  0  0  0
   -5.1137    0.2939    1.4741 H   0  0  0  0  0  0  0  0  0  0  0  0
   -5.2274    2.7332   -0.0269 H   0  0  0  0  0  0  0  0  0  0  0  0
   -3.0539    1.7744   -0.2731 H   0  0  0  0  0  0  0  0  0  0  0  0
   -3.0231    0.9170    2.4625 H   0  0  0  0  0  0  0  0  0  0  0  0
   -0.4326   -1.8663    2.8605 H   0  0  0  0  0  0  0  0  0  0  0  0
    4.0694   -0.6458    2.7011 H   0  0  0  0  0  0  0  0  0  0  0  0
    4.9144    1.7466   -1.1286 H   0  0  0  0  0  0  0  0  0  0  0  0
    7.2915    2.1007   -1.6387 H   0  0  0  0  0  0  0  0  0  0  0  0
   10.0727    0.3219   -0.0753 H   0  0  0  0  0  0  0  0  0  0  0  0
    8.3755   -0.9125    1.2292 H   0  0  0  0  0  0  0  0  0  0  0  0
    6.0138   -1.3023    1.7359 H   0  0  0  0  0  0  0  0  0  0  0  0
    1.2189    0.9378   -2.0918 H   0  0  0  0  0  0  0  0  0  0  0  0
   -1.0218    1.2461   -2.9598 H   0  0  0  0  0  0  0  0  0  0  0  0
  1  2  1  0
  2  3  1  0
  3  4  1  0
  4  5  1  0
  3  6  1  0
  6  7  1  0
  6  8  1  0
  8  9  1  0
  8 10  1  0
 10 11  1  0
  1 12  1  0
 12 13  2  0
 13 14  1  0
 13 15  1  0
 15 16  2  0
 16 17  1  0
 17 18  1  0
 18 19  2  0
 19 20  1  0
 20 21  2  0
 18 22  1  0
 22 23  2  0
 23 24  1  0
 24 25  2  0
 25 26  1  0
 25 27  1  0
 27 28  2  0
 16 29  1  0
 29 30  2  0
 30 31  1  0
 10  1  1  0
 30 12  1  0
 20 15  1  0
 28 22  1  0
  1 32  1  1
  3 33  1  1
  4 34  1  0
  4 35  1  0
  5 36  1  0
  6 37  1  6
  7 38  1  0
  8 39  1  1
  9 40  1  0
 10 41  1  6
 11 42  1  0
 14 43  1  0
 19 44  1  0
 23 45  1  0
 24 46  1  0
 26 47  1  0
 27 48  1  0
 28 49  1  0
 29 50  1  0
 31 51  1  0
M  END
>  <LIG_ID>  (157) 
156

>  <_smiles>  (157) 
[H][C@]1(O[C@H](CO)[C@@H](O)[C@H](O)[C@H]1O)C1=C(O)C2=C(OC(=CC2=O)C2=CC=C(O)C=C2)C=C1O

>  <_name>  (157) 
Apigenin 6-C-glucoside

>  <_molecular_weight>  (157) 
432.378

>  <_formula>  (157) 
C21H20O10

>  <_logP>  (157) 
0.09169999999999995

>  <_molecular_wt_calculated>  (157) 
432.38099999999986

>  <_havy_atom_count>  (157) 
31

>  <_hydrogen_acceptors>  (157) 
10

>  <_hydrogen_donors>  (157) 
7

>  <_rotatable_bonds>  (157) 
10

>  <_amide_bonds>  (157) 
0

>  <_ring_count>  (157) 
4

$$$$
Hispidulin
     RDKit          3D

 34 36  0  0  0  0  0  0  0  0999 V2000
   -5.9480   -0.5705   -0.1002 C   0  0  0  0  0  0  0  0  0  0  0  0
   -5.0647    0.4980    0.2226 O   0  0  0  0  0  0  0  0  0  0  0  0
   -3.6569    0.4515    0.2398 C   0  0  0  0  0  0  0  0  0  0  0  0
   -2.9012   -0.7358    0.0433 C   0  0  0  0  0  0  0  0  0  0  0  0
   -3.5805   -1.9526   -0.0529 O   0  0  0  0  0  0  0  0  0  0  0  0
   -1.4759   -0.6627   -0.0056 C   0  0  0  0  0  0  0  0  0  0  0  0
   -0.8443    0.5747    0.2719 C   0  0  0  0  0  0  0  0  0  0  0  0
    0.4807    0.6784    0.2852 O   0  0  0  0  0  0  0  0  0  0  0  0
    1.2977   -0.3348    0.0174 C   0  0  0  0  0  0  0  0  0  0  0  0
    0.7554   -1.5846   -0.3106 C   0  0  0  0  0  0  0  0  0  0  0  0
   -0.6301   -1.7463   -0.3476 C   0  0  0  0  0  0  0  0  0  0  0  0
   -1.0880   -2.8568   -0.7235 O   0  0  0  0  0  0  0  0  0  0  0  0
    2.7634   -0.1047    0.0771 C   0  0  0  0  0  0  0  0  0  0  0  0
    3.6655   -0.8576   -0.7010 C   0  0  0  0  0  0  0  0  0  0  0  0
    5.0400   -0.6107   -0.6300 C   0  0  0  0  0  0  0  0  0  0  0  0
    5.5339    0.3919    0.2086 C   0  0  0  0  0  0  0  0  0  0  0  0
    6.9060    0.6249    0.2690 O   0  0  0  0  0  0  0  0  0  0  0  0
    4.6453    1.1541    0.9764 C   0  0  0  0  0  0  0  0  0  0  0  0
    3.2703    0.9113    0.9078 C   0  0  0  0  0  0  0  0  0  0  0  0
   -1.6033    1.7135    0.5256 C   0  0  0  0  0  0  0  0  0  0  0  0
   -2.9959    1.6610    0.4868 C   0  0  0  0  0  0  0  0  0  0  0  0
   -3.7424    2.8191    0.7018 O   0  0  0  0  0  0  0  0  0  0  0  0
   -5.8938   -1.3623    0.6758 H   0  0  0  0  0  0  0  0  0  0  0  0
   -5.7093   -0.9785   -1.1050 H   0  0  0  0  0  0  0  0  0  0  0  0
   -6.9867   -0.1820   -0.1210 H   0  0  0  0  0  0  0  0  0  0  0  0
   -3.1804   -2.8484    0.1849 H   0  0  0  0  0  0  0  0  0  0  0  0
    1.3923   -2.4321   -0.5292 H   0  0  0  0  0  0  0  0  0  0  0  0
    3.3156   -1.6194   -1.3842 H   0  0  0  0  0  0  0  0  0  0  0  0
    5.7223   -1.1954   -1.2341 H   0  0  0  0  0  0  0  0  0  0  0  0
    7.2949    1.3452    0.8663 H   0  0  0  0  0  0  0  0  0  0  0  0
    5.0185    1.9351    1.6267 H   0  0  0  0  0  0  0  0  0  0  0  0
    2.6032    1.5113    1.5145 H   0  0  0  0  0  0  0  0  0  0  0  0
   -1.1051    2.6536    0.7295 H   0  0  0  0  0  0  0  0  0  0  0  0
   -3.2988    3.7117    0.8853 H   0  0  0  0  0  0  0  0  0  0  0  0
  1  2  1  0
  2  3  1  0
  3  4  2  0
  4  5  1  0
  4  6  1  0
  6  7  2  0
  7  8  1  0
  8  9  1  0
  9 10  2  0
 10 11  1  0
 11 12  2  0
  9 13  1  0
 13 14  2  0
 14 15  1  0
 15 16  2  0
 16 17  1  0
 16 18  1  0
 18 19  2  0
  7 20  1  0
 20 21  2  0
 21 22  1  0
 21  3  1  0
 11  6  1  0
 19 13  1  0
  1 23  1  0
  1 24  1  0
  1 25  1  0
  5 26  1  0
 10 27  1  0
 14 28  1  0
 15 29  1  0
 17 30  1  0
 18 31  1  0
 19 32  1  0
 20 33  1  0
 22 34  1  0
M  END
>  <LIG_ID>  (158) 
157

>  <_smiles>  (158) 
COC1=C(O)C2=C(OC(=CC2=O)C2=CC=C(O)C=C2)C=C1O

>  <_name>  (158) 
Hispidulin

>  <_molecular_weight>  (158) 
300.263

>  <_formula>  (158) 
C16H12O6

>  <_logP>  (158) 
2.5854000000000004

>  <_molecular_wt_calculated>  (158) 
300.2659999999998

>  <_havy_atom_count>  (158) 
22

>  <_hydrogen_acceptors>  (158) 
6

>  <_hydrogen_donors>  (158) 
3

>  <_rotatable_bonds>  (158) 
6

>  <_amide_bonds>  (158) 
0

>  <_ring_count>  (158) 
3

$$$$
Cirsimaritin
     RDKit          3D

 37 39  0  0  0  0  0  0  0  0999 V2000
   -3.5872    3.1278    1.4664 C   0  0  0  0  0  0  0  0  0  0  0  0
   -3.8922    1.8261    0.9759 O   0  0  0  0  0  0  0  0  0  0  0  0
   -2.9349    0.8572    0.6316 C   0  0  0  0  0  0  0  0  0  0  0  0
   -3.3877   -0.3837    0.1616 C   0  0  0  0  0  0  0  0  0  0  0  0
   -4.7845   -0.5465    0.0732 O   0  0  0  0  0  0  0  0  0  0  0  0
   -5.4800   -1.6642   -0.4684 C   0  0  0  0  0  0  0  0  0  0  0  0
   -2.4528   -1.3986   -0.1766 C   0  0  0  0  0  0  0  0  0  0  0  0
   -2.9319   -2.6716   -0.4949 O   0  0  0  0  0  0  0  0  0  0  0  0
   -1.0567   -1.1106   -0.1384 C   0  0  0  0  0  0  0  0  0  0  0  0
   -0.0472   -1.9834   -0.6127 C   0  0  0  0  0  0  0  0  0  0  0  0
   -0.3215   -3.0596   -1.2055 O   0  0  0  0  0  0  0  0  0  0  0  0
    1.2961   -1.6331   -0.4716 C   0  0  0  0  0  0  0  0  0  0  0  0
    1.6321   -0.3987    0.0999 C   0  0  0  0  0  0  0  0  0  0  0  0
    0.6626    0.4310    0.4709 O   0  0  0  0  0  0  0  0  0  0  0  0
   -0.6304    0.1413    0.3660 C   0  0  0  0  0  0  0  0  0  0  0  0
   -1.5606    1.1015    0.7536 C   0  0  0  0  0  0  0  0  0  0  0  0
    3.0439    0.0258    0.2772 C   0  0  0  0  0  0  0  0  0  0  0  0
    3.3556    1.3972    0.3140 C   0  0  0  0  0  0  0  0  0  0  0  0
    4.6759    1.8221    0.4885 C   0  0  0  0  0  0  0  0  0  0  0  0
    5.7026    0.8863    0.6384 C   0  0  0  0  0  0  0  0  0  0  0  0
    7.0136    1.3244    0.8112 O   0  0  0  0  0  0  0  0  0  0  0  0
    5.4032   -0.4813    0.6170 C   0  0  0  0  0  0  0  0  0  0  0  0
    4.0840   -0.9107    0.4417 C   0  0  0  0  0  0  0  0  0  0  0  0
   -3.0281    3.0543    2.4230 H   0  0  0  0  0  0  0  0  0  0  0  0
   -2.9912    3.6889    0.7159 H   0  0  0  0  0  0  0  0  0  0  0  0
   -4.5335    3.6766    1.6501 H   0  0  0  0  0  0  0  0  0  0  0  0
   -5.3313   -2.5577    0.1732 H   0  0  0  0  0  0  0  0  0  0  0  0
   -5.1460   -1.8593   -1.5093 H   0  0  0  0  0  0  0  0  0  0  0  0
   -6.5649   -1.4345   -0.4890 H   0  0  0  0  0  0  0  0  0  0  0  0
   -2.4018   -3.5233   -0.3801 H   0  0  0  0  0  0  0  0  0  0  0  0
    2.0600   -2.3014   -0.8483 H   0  0  0  0  0  0  0  0  0  0  0  0
   -1.1987    2.0496    1.1285 H   0  0  0  0  0  0  0  0  0  0  0  0
    2.5787    2.1427    0.1960 H   0  0  0  0  0  0  0  0  0  0  0  0
    4.9013    2.8809    0.5073 H   0  0  0  0  0  0  0  0  0  0  0  0
    7.7798    0.6708    0.9237 H   0  0  0  0  0  0  0  0  0  0  0  0
    6.1910   -1.2131    0.7432 H   0  0  0  0  0  0  0  0  0  0  0  0
    3.8826   -1.9731    0.4609 H   0  0  0  0  0  0  0  0  0  0  0  0
  1  2  1  0
  2  3  1  0
  3  4  2  0
  4  5  1  0
  5  6  1  0
  4  7  1  0
  7  8  1  0
  7  9  2  0
  9 10  1  0
 10 11  2  0
 10 12  1  0
 12 13  2  0
 13 14  1  0
 14 15  1  0
 15 16  2  0
 13 17  1  0
 17 18  2  0
 18 19  1  0
 19 20  2  0
 20 21  1  0
 20 22  1  0
 22 23  2  0
 16  3  1  0
 23 17  1  0
 15  9  1  0
  1 24  1  0
  1 25  1  0
  1 26  1  0
  6 27  1  0
  6 28  1  0
  6 29  1  0
  8 30  1  0
 12 31  1  0
 16 32  1  0
 18 33  1  0
 19 34  1  0
 21 35  1  0
 22 36  1  0
 23 37  1  0
M  END
>  <LIG_ID>  (159) 
158

>  <_smiles>  (159) 
COC1=C(OC)C(O)=C2C(=O)C=C(OC2=C1)C1=CC=C(O)C=C1

>  <_name>  (159) 
Cirsimaritin

>  <_molecular_weight>  (159) 
314.289

>  <_formula>  (159) 
C17H14O6

>  <_logP>  (159) 
2.8884000000000007

>  <_molecular_wt_calculated>  (159) 
314.2929999999998

>  <_havy_atom_count>  (159) 
23

>  <_hydrogen_acceptors>  (159) 
6

>  <_hydrogen_donors>  (159) 
2

>  <_rotatable_bonds>  (159) 
7

>  <_amide_bonds>  (159) 
0

>  <_ring_count>  (159) 
3

$$$$
5,6-Dihydroxy-7,8,3',4'-tetramethoxyflavone
     RDKit          3D

 45 47  0  0  0  0  0  0  0  0999 V2000
    6.0352   -0.1462   -2.4620 C   0  0  0  0  0  0  0  0  0  0  0  0
    5.6295   -0.1078   -1.0976 O   0  0  0  0  0  0  0  0  0  0  0  0
    4.2967   -0.1790   -0.6618 C   0  0  0  0  0  0  0  0  0  0  0  0
    4.0419   -0.1285    0.7164 C   0  0  0  0  0  0  0  0  0  0  0  0
    5.1343   -0.0020    1.5898 O   0  0  0  0  0  0  0  0  0  0  0  0
    5.0325    0.0584    3.0088 C   0  0  0  0  0  0  0  0  0  0  0  0
    2.7146   -0.2011    1.1839 C   0  0  0  0  0  0  0  0  0  0  0  0
    1.6397   -0.3334    0.2845 C   0  0  0  0  0  0  0  0  0  0  0  0
    1.9103   -0.3658   -1.0916 C   0  0  0  0  0  0  0  0  0  0  0  0
    3.2223   -0.2948   -1.5616 C   0  0  0  0  0  0  0  0  0  0  0  0
    0.2334   -0.4011    0.7592 C   0  0  0  0  0  0  0  0  0  0  0  0
   -0.0939   -0.9340    2.0116 C   0  0  0  0  0  0  0  0  0  0  0  0
   -1.4238   -0.9455    2.4278 C   0  0  0  0  0  0  0  0  0  0  0  0
   -1.6964   -1.4939    3.5273 O   0  0  0  0  0  0  0  0  0  0  0  0
   -2.4259   -0.3853    1.5995 C   0  0  0  0  0  0  0  0  0  0  0  0
   -2.0246    0.0518    0.3112 C   0  0  0  0  0  0  0  0  0  0  0  0
   -0.7386    0.0383   -0.0343 O   0  0  0  0  0  0  0  0  0  0  0  0
   -2.9724    0.5161   -0.6174 C   0  0  0  0  0  0  0  0  0  0  0  0
   -2.5545    0.8869   -1.8985 O   0  0  0  0  0  0  0  0  0  0  0  0
   -2.0626   -0.0625   -2.8388 C   0  0  0  0  0  0  0  0  0  0  0  0
   -4.3331    0.6107   -0.2493 C   0  0  0  0  0  0  0  0  0  0  0  0
   -5.3439    1.0965   -1.1013 O   0  0  0  0  0  0  0  0  0  0  0  0
   -5.1682    1.6412   -2.4043 C   0  0  0  0  0  0  0  0  0  0  0  0
   -4.7292    0.2091    1.0315 C   0  0  0  0  0  0  0  0  0  0  0  0
   -6.0817    0.3074    1.3682 O   0  0  0  0  0  0  0  0  0  0  0  0
   -3.7938   -0.2617    1.9696 C   0  0  0  0  0  0  0  0  0  0  0  0
   -4.2669   -0.5493    3.2544 O   0  0  0  0  0  0  0  0  0  0  0  0
    5.5963    0.7109   -3.0151 H   0  0  0  0  0  0  0  0  0  0  0  0
    5.7202   -1.1041   -2.9273 H   0  0  0  0  0  0  0  0  0  0  0  0
    7.1408   -0.0731   -2.5134 H   0  0  0  0  0  0  0  0  0  0  0  0
    4.5624   -0.8694    3.3981 H   0  0  0  0  0  0  0  0  0  0  0  0
    4.4376    0.9459    3.3116 H   0  0  0  0  0  0  0  0  0  0  0  0
    6.0498    0.1492    3.4414 H   0  0  0  0  0  0  0  0  0  0  0  0
    2.5182   -0.1280    2.2435 H   0  0  0  0  0  0  0  0  0  0  0  0
    1.1069   -0.4592   -1.8090 H   0  0  0  0  0  0  0  0  0  0  0  0
    3.3902   -0.3317   -2.6293 H   0  0  0  0  0  0  0  0  0  0  0  0
    0.6651   -1.3703    2.6491 H   0  0  0  0  0  0  0  0  0  0  0  0
   -2.8479   -0.8162   -3.0583 H   0  0  0  0  0  0  0  0  0  0  0  0
   -1.7957    0.4618   -3.7789 H   0  0  0  0  0  0  0  0  0  0  0  0
   -1.1641   -0.5786   -2.4495 H   0  0  0  0  0  0  0  0  0  0  0  0
   -4.4683    2.5025   -2.3719 H   0  0  0  0  0  0  0  0  0  0  0  0
   -4.8077    0.8589   -3.1030 H   0  0  0  0  0  0  0  0  0  0  0  0
   -6.1483    2.0054   -2.7745 H   0  0  0  0  0  0  0  0  0  0  0  0
   -6.4408    0.0350    2.2751 H   0  0  0  0  0  0  0  0  0  0  0  0
   -3.6956   -0.5633    4.0860 H   0  0  0  0  0  0  0  0  0  0  0  0
  1  2  1  0
  2  3  1  0
  3  4  2  0
  4  5  1  0
  5  6  1  0
  4  7  1  0
  7  8  2  0
  8  9  1  0
  9 10  2  0
  8 11  1  0
 11 12  2  0
 12 13  1  0
 13 14  2  0
 13 15  1  0
 15 16  2  0
 16 17  1  0
 16 18  1  0
 18 19  1  0
 19 20  1  0
 18 21  2  0
 21 22  1  0
 22 23  1  0
 21 24  1  0
 24 25  1  0
 24 26  2  0
 26 27  1  0
 10  3  1  0
 17 11  1  0
 26 15  1  0
  1 28  1  0
  1 29  1  0
  1 30  1  0
  6 31  1  0
  6 32  1  0
  6 33  1  0
  7 34  1  0
  9 35  1  0
 10 36  1  0
 12 37  1  0
 20 38  1  0
 20 39  1  0
 20 40  1  0
 23 41  1  0
 23 42  1  0
 23 43  1  0
 25 44  1  0
 27 45  1  0
M  END
>  <LIG_ID>  (160) 
159

>  <_smiles>  (160) 
COC1=C(OC)C=C(C=C1)C1=CC(=O)C2=C(O1)C(OC)=C(OC)C(O)=C2O

>  <_name>  (160) 
5,6-Dihydroxy-7,8,3',4'-tetramethoxyflavone

>  <_molecular_weight>  (160) 
374.341

>  <_formula>  (160) 
C19H18O8

>  <_logP>  (160) 
2.9056000000000024

>  <_molecular_wt_calculated>  (160) 
374.3449999999998

>  <_havy_atom_count>  (160) 
27

>  <_hydrogen_acceptors>  (160) 
8

>  <_hydrogen_donors>  (160) 
2

>  <_rotatable_bonds>  (160) 
11

>  <_amide_bonds>  (160) 
0

>  <_ring_count>  (160) 
3

$$$$
Pebrellin
     RDKit          3D

 41 43  0  0  0  0  0  0  0  0999 V2000
    6.6559    0.9039   -1.1857 C   0  0  0  0  0  0  0  0  0  0  0  0
    6.1116   -0.0097   -0.2389 O   0  0  0  0  0  0  0  0  0  0  0  0
    4.7421   -0.2750   -0.0916 C   0  0  0  0  0  0  0  0  0  0  0  0
    4.3441   -1.1972    0.8816 C   0  0  0  0  0  0  0  0  0  0  0  0
    2.9916   -1.4969    1.0677 C   0  0  0  0  0  0  0  0  0  0  0  0
    2.0078   -0.8783    0.2741 C   0  0  0  0  0  0  0  0  0  0  0  0
    2.4089    0.0536   -0.6970 C   0  0  0  0  0  0  0  0  0  0  0  0
    3.7619    0.3518   -0.8826 C   0  0  0  0  0  0  0  0  0  0  0  0
    0.5664   -1.1706    0.4663 C   0  0  0  0  0  0  0  0  0  0  0  0
    0.1288   -2.4342    0.8695 C   0  0  0  0  0  0  0  0  0  0  0  0
   -1.2318   -2.6599    1.0537 C   0  0  0  0  0  0  0  0  0  0  0  0
   -1.6050   -3.8280    1.3378 O   0  0  0  0  0  0  0  0  0  0  0  0
   -2.1529   -1.5986    0.8788 C   0  0  0  0  0  0  0  0  0  0  0  0
   -1.6398   -0.3617    0.4011 C   0  0  0  0  0  0  0  0  0  0  0  0
   -0.3269   -0.2147    0.2322 O   0  0  0  0  0  0  0  0  0  0  0  0
   -2.5146    0.7170    0.1069 C   0  0  0  0  0  0  0  0  0  0  0  0
   -2.0507    1.9626   -0.3572 O   0  0  0  0  0  0  0  0  0  0  0  0
   -0.7322    2.2890   -0.7807 C   0  0  0  0  0  0  0  0  0  0  0  0
   -3.9099    0.5475    0.2889 C   0  0  0  0  0  0  0  0  0  0  0  0
   -4.8624    1.5441   -0.0077 O   0  0  0  0  0  0  0  0  0  0  0  0
   -4.6201    2.8255   -0.5784 C   0  0  0  0  0  0  0  0  0  0  0  0
   -4.4032   -0.6641    0.7974 C   0  0  0  0  0  0  0  0  0  0  0  0
   -5.7740   -0.8385    1.0070 O   0  0  0  0  0  0  0  0  0  0  0  0
   -3.5454   -1.7161    1.1258 C   0  0  0  0  0  0  0  0  0  0  0  0
   -4.1291   -2.8374    1.7253 O   0  0  0  0  0  0  0  0  0  0  0  0
    6.2691    1.9272   -0.9949 H   0  0  0  0  0  0  0  0  0  0  0  0
    7.7604    0.9169   -1.0835 H   0  0  0  0  0  0  0  0  0  0  0  0
    6.3980    0.5837   -2.2173 H   0  0  0  0  0  0  0  0  0  0  0  0
    5.0880   -1.6804    1.5025 H   0  0  0  0  0  0  0  0  0  0  0  0
    2.7187   -2.1949    1.8484 H   0  0  0  0  0  0  0  0  0  0  0  0
    1.6775    0.5392   -1.3277 H   0  0  0  0  0  0  0  0  0  0  0  0
    4.0344    1.0691   -1.6446 H   0  0  0  0  0  0  0  0  0  0  0  0
    0.8290   -3.2500    1.0030 H   0  0  0  0  0  0  0  0  0  0  0  0
   -0.0251    2.2352    0.0733 H   0  0  0  0  0  0  0  0  0  0  0  0
   -0.4226    1.6171   -1.6075 H   0  0  0  0  0  0  0  0  0  0  0  0
   -0.7278    3.3303   -1.1622 H   0  0  0  0  0  0  0  0  0  0  0  0
   -5.5914    3.3405   -0.7249 H   0  0  0  0  0  0  0  0  0  0  0  0
   -4.0049    3.4435    0.1087 H   0  0  0  0  0  0  0  0  0  0  0  0
   -4.1323    2.7203   -1.5703 H   0  0  0  0  0  0  0  0  0  0  0  0
   -6.4567   -0.1198    0.7996 H   0  0  0  0  0  0  0  0  0  0  0  0
   -3.6356   -3.4922    2.3139 H   0  0  0  0  0  0  0  0  0  0  0  0
  1  2  1  0
  2  3  1  0
  3  4  2  0
  4  5  1  0
  5  6  2  0
  6  7  1  0
  7  8  2  0
  6  9  1  0
  9 10  2  0
 10 11  1  0
 11 12  2  0
 11 13  1  0
 13 14  2  0
 14 15  1  0
 14 16  1  0
 16 17  1  0
 17 18  1  0
 16 19  2  0
 19 20  1  0
 20 21  1  0
 19 22  1  0
 22 23  1  0
 22 24  2  0
 24 25  1  0
  8  3  1  0
 15  9  1  0
 24 13  1  0
  1 26  1  0
  1 27  1  0
  1 28  1  0
  4 29  1  0
  5 30  1  0
  7 31  1  0
  8 32  1  0
 10 33  1  0
 18 34  1  0
 18 35  1  0
 18 36  1  0
 21 37  1  0
 21 38  1  0
 21 39  1  0
 23 40  1  0
 25 41  1  0
M  END
>  <LIG_ID>  (161) 
160

>  <_smiles>  (161) 
COC1=CC=C(C=C1)C1=CC(=O)C2=C(O1)C(OC)=C(OC)C(O)=C2O

>  <_name>  (161) 
Pebrellin

>  <_molecular_weight>  (161) 
344.315

>  <_formula>  (161) 
C18H16O7

>  <_logP>  (161) 
2.897000000000002

>  <_molecular_wt_calculated>  (161) 
344.3189999999998

>  <_havy_atom_count>  (161) 
25

>  <_hydrogen_acceptors>  (161) 
7

>  <_hydrogen_donors>  (161) 
2

>  <_rotatable_bonds>  (161) 
9

>  <_amide_bonds>  (161) 
0

>  <_ring_count>  (161) 
3

$$$$
Gardenin B
     RDKit          3D

 44 46  0  0  0  0  0  0  0  0999 V2000
    7.4178    0.9613   -1.2970 C   0  0  0  0  0  0  0  0  0  0  0  0
    6.3220    1.5577   -0.6108 O   0  0  0  0  0  0  0  0  0  0  0  0
    5.0520    0.9744   -0.4890 C   0  0  0  0  0  0  0  0  0  0  0  0
    4.7395   -0.2786   -1.0473 C   0  0  0  0  0  0  0  0  0  0  0  0
    3.4585   -0.8185   -0.8976 C   0  0  0  0  0  0  0  0  0  0  0  0
    2.4669   -0.1200   -0.1838 C   0  0  0  0  0  0  0  0  0  0  0  0
    2.7834    1.1338    0.3635 C   0  0  0  0  0  0  0  0  0  0  0  0
    4.0645    1.6719    0.2139 C   0  0  0  0  0  0  0  0  0  0  0  0
    1.0982   -0.6698   -0.0280 C   0  0  0  0  0  0  0  0  0  0  0  0
    0.8745   -2.0450    0.0675 C   0  0  0  0  0  0  0  0  0  0  0  0
   -0.4278   -2.5175    0.1953 C   0  0  0  0  0  0  0  0  0  0  0  0
   -0.5954   -3.7525    0.3746 O   0  0  0  0  0  0  0  0  0  0  0  0
   -1.5144   -1.6086    0.1717 C   0  0  0  0  0  0  0  0  0  0  0  0
   -2.8747   -2.0152    0.1970 C   0  0  0  0  0  0  0  0  0  0  0  0
   -3.2449   -3.3488    0.0069 O   0  0  0  0  0  0  0  0  0  0  0  0
   -3.8911   -1.0478    0.3636 C   0  0  0  0  0  0  0  0  0  0  0  0
   -5.2561   -1.3727    0.5025 O   0  0  0  0  0  0  0  0  0  0  0  0
   -5.8134   -2.6730    0.6626 C   0  0  0  0  0  0  0  0  0  0  0  0
   -3.5751    0.3175    0.3769 C   0  0  0  0  0  0  0  0  0  0  0  0
   -4.6639    1.2015    0.5281 O   0  0  0  0  0  0  0  0  0  0  0  0
   -4.6133    2.6195    0.6440 C   0  0  0  0  0  0  0  0  0  0  0  0
   -2.2326    0.7455    0.2388 C   0  0  0  0  0  0  0  0  0  0  0  0
   -1.9769    2.1293    0.1926 O   0  0  0  0  0  0  0  0  0  0  0  0
   -0.7099    2.7753    0.2313 C   0  0  0  0  0  0  0  0  0  0  0  0
   -1.2030   -0.2236    0.1499 C   0  0  0  0  0  0  0  0  0  0  0  0
    0.0665    0.1652    0.0418 O   0  0  0  0  0  0  0  0  0  0  0  0
    7.6817   -0.0087   -0.8250 H   0  0  0  0  0  0  0  0  0  0  0  0
    8.2953    1.6369   -1.2352 H   0  0  0  0  0  0  0  0  0  0  0  0
    7.1611    0.8089   -2.3667 H   0  0  0  0  0  0  0  0  0  0  0  0
    5.4768   -0.8408   -1.6040 H   0  0  0  0  0  0  0  0  0  0  0  0
    3.2413   -1.7718   -1.3615 H   0  0  0  0  0  0  0  0  0  0  0  0
    2.0466    1.6913    0.9245 H   0  0  0  0  0  0  0  0  0  0  0  0
    4.2920    2.6368    0.6492 H   0  0  0  0  0  0  0  0  0  0  0  0
    1.7017   -2.7443    0.0853 H   0  0  0  0  0  0  0  0  0  0  0  0
   -2.6926   -4.0210   -0.5066 H   0  0  0  0  0  0  0  0  0  0  0  0
   -6.8955   -2.5732    0.8848 H   0  0  0  0  0  0  0  0  0  0  0  0
   -5.3304   -3.1984    1.5135 H   0  0  0  0  0  0  0  0  0  0  0  0
   -5.7101   -3.2545   -0.2771 H   0  0  0  0  0  0  0  0  0  0  0  0
   -5.6409    3.0007    0.8138 H   0  0  0  0  0  0  0  0  0  0  0  0
   -3.9879    2.9137    1.5131 H   0  0  0  0  0  0  0  0  0  0  0  0
   -4.2321    3.0698   -0.2963 H   0  0  0  0  0  0  0  0  0  0  0  0
   -0.1699    2.4940    1.1586 H   0  0  0  0  0  0  0  0  0  0  0  0
   -0.8695    3.8727    0.2449 H   0  0  0  0  0  0  0  0  0  0  0  0
   -0.1188    2.5271   -0.6749 H   0  0  0  0  0  0  0  0  0  0  0  0
  1  2  1  0
  2  3  1  0
  3  4  2  0
  4  5  1  0
  5  6  2  0
  6  7  1  0
  7  8  2  0
  6  9  1  0
  9 10  2  0
 10 11  1  0
 11 12  2  0
 11 13  1  0
 13 14  2  0
 14 15  1  0
 14 16  1  0
 16 17  1  0
 17 18  1  0
 16 19  2  0
 19 20  1  0
 20 21  1  0
 19 22  1  0
 22 23  1  0
 23 24  1  0
 22 25  2  0
 25 26  1  0
  8  3  1  0
 26  9  1  0
 25 13  1  0
  1 27  1  0
  1 28  1  0
  1 29  1  0
  4 30  1  0
  5 31  1  0
  7 32  1  0
  8 33  1  0
 10 34  1  0
 15 35  1  0
 18 36  1  0
 18 37  1  0
 18 38  1  0
 21 39  1  0
 21 40  1  0
 21 41  1  0
 24 42  1  0
 24 43  1  0
 24 44  1  0
M  END
>  <LIG_ID>  (162) 
161

>  <_smiles>  (162) 
COC1=CC=C(C=C1)C1=CC(=O)C2=C(O)C(OC)=C(OC)C(OC)=C2O1

>  <_name>  (162) 
Gardenin B

>  <_molecular_weight>  (162) 
358.342

>  <_formula>  (162) 
C19H18O7

>  <_logP>  (162) 
3.200000000000002

>  <_molecular_wt_calculated>  (162) 
358.3459999999998

>  <_havy_atom_count>  (162) 
26

>  <_hydrogen_acceptors>  (162) 
7

>  <_hydrogen_donors>  (162) 
1

>  <_rotatable_bonds>  (162) 
10

>  <_amide_bonds>  (162) 
0

>  <_ring_count>  (162) 
3

$$$$
Nepetin
     RDKit          3D

 35 37  0  0  0  0  0  0  0  0999 V2000
   -6.2230   -0.3162    0.4342 C   0  0  0  0  0  0  0  0  0  0  0  0
   -5.1731    0.4796   -0.1044 O   0  0  0  0  0  0  0  0  0  0  0  0
   -3.7910    0.2372    0.0152 C   0  0  0  0  0  0  0  0  0  0  0  0
   -2.9142    1.1579   -0.5988 C   0  0  0  0  0  0  0  0  0  0  0  0
   -3.4345    2.2560   -1.2904 O   0  0  0  0  0  0  0  0  0  0  0  0
   -1.5133    0.9747   -0.5173 C   0  0  0  0  0  0  0  0  0  0  0  0
   -1.0009   -0.1375    0.1846 C   0  0  0  0  0  0  0  0  0  0  0  0
    0.3104   -0.3347    0.2795 O   0  0  0  0  0  0  0  0  0  0  0  0
    1.2137    0.4796   -0.2609 C   0  0  0  0  0  0  0  0  0  0  0  0
    0.7830    1.6030   -0.9842 C   0  0  0  0  0  0  0  0  0  0  0  0
   -0.5837    1.8537   -1.1124 C   0  0  0  0  0  0  0  0  0  0  0  0
   -0.9587    2.8648   -1.7655 O   0  0  0  0  0  0  0  0  0  0  0  0
    2.6541    0.1609   -0.0918 C   0  0  0  0  0  0  0  0  0  0  0  0
    3.0478   -1.1732    0.1159 C   0  0  0  0  0  0  0  0  0  0  0  0
    4.3967   -1.5046    0.2870 C   0  0  0  0  0  0  0  0  0  0  0  0
    4.7464   -2.8407    0.4807 O   0  0  0  0  0  0  0  0  0  0  0  0
    5.3729   -0.4957    0.2616 C   0  0  0  0  0  0  0  0  0  0  0  0
    6.7182   -0.8193    0.4310 O   0  0  0  0  0  0  0  0  0  0  0  0
    4.9878    0.8368    0.0689 C   0  0  0  0  0  0  0  0  0  0  0  0
    3.6407    1.1653   -0.1027 C   0  0  0  0  0  0  0  0  0  0  0  0
   -1.8680   -1.0452    0.7888 C   0  0  0  0  0  0  0  0  0  0  0  0
   -3.2543   -0.8725    0.7135 C   0  0  0  0  0  0  0  0  0  0  0  0
   -4.0814   -1.8069    1.3342 O   0  0  0  0  0  0  0  0  0  0  0  0
   -6.1918   -1.3383    0.0017 H   0  0  0  0  0  0  0  0  0  0  0  0
   -7.1955    0.1439    0.1645 H   0  0  0  0  0  0  0  0  0  0  0  0
   -6.1511   -0.3497    1.5416 H   0  0  0  0  0  0  0  0  0  0  0  0
   -4.4284    2.4299   -1.3764 H   0  0  0  0  0  0  0  0  0  0  0  0
    1.4902    2.2648   -1.4675 H   0  0  0  0  0  0  0  0  0  0  0  0
    2.3085   -1.9649    0.1339 H   0  0  0  0  0  0  0  0  0  0  0  0
    5.7079   -3.1321    0.6093 H   0  0  0  0  0  0  0  0  0  0  0  0
    7.4407   -0.1088    0.4175 H   0  0  0  0  0  0  0  0  0  0  0  0
    5.7331    1.6221    0.0590 H   0  0  0  0  0  0  0  0  0  0  0  0
    3.3769    2.2078   -0.2177 H   0  0  0  0  0  0  0  0  0  0  0  0
   -1.4592   -1.8940    1.3234 H   0  0  0  0  0  0  0  0  0  0  0  0
   -3.7069   -2.6039    1.8360 H   0  0  0  0  0  0  0  0  0  0  0  0
  1  2  1  0
  2  3  1  0
  3  4  2  0
  4  5  1  0
  4  6  1  0
  6  7  2  0
  7  8  1  0
  8  9  1  0
  9 10  2  0
 10 11  1  0
 11 12  2  0
  9 13  1  0
 13 14  2  0
 14 15  1  0
 15 16  1  0
 15 17  2  0
 17 18  1  0
 17 19  1  0
 19 20  2  0
  7 21  1  0
 21 22  2  0
 22 23  1  0
 22  3  1  0
 11  6  1  0
 20 13  1  0
  1 24  1  0
  1 25  1  0
  1 26  1  0
  5 27  1  0
 10 28  1  0
 14 29  1  0
 16 30  1  0
 18 31  1  0
 19 32  1  0
 20 33  1  0
 21 34  1  0
 23 35  1  0
M  END
>  <LIG_ID>  (163) 
162

>  <_smiles>  (163) 
COC1=C(O)C2=C(OC(=CC2=O)C2=CC(O)=C(O)C=C2)C=C1O

>  <_name>  (163) 
Nepetin

>  <_molecular_weight>  (163) 
316.262

>  <_formula>  (163) 
C16H12O7

>  <_logP>  (163) 
2.291000000000001

>  <_molecular_wt_calculated>  (163) 
316.2649999999998

>  <_havy_atom_count>  (163) 
23

>  <_hydrogen_acceptors>  (163) 
7

>  <_hydrogen_donors>  (163) 
4

>  <_rotatable_bonds>  (163) 
7

>  <_amide_bonds>  (163) 
0

>  <_ring_count>  (163) 
3

$$$$
Jaceosidin
     RDKit          3D

 38 40  0  0  0  0  0  0  0  0999 V2000
   -4.6256    2.5363   -0.3408 C   0  0  0  0  0  0  0  0  0  0  0  0
   -5.1233    1.2171   -0.1419 O   0  0  0  0  0  0  0  0  0  0  0  0
   -4.3195    0.0832    0.0592 C   0  0  0  0  0  0  0  0  0  0  0  0
   -4.9415   -1.1644    0.2417 C   0  0  0  0  0  0  0  0  0  0  0  0
   -6.3309   -1.2864    0.2264 O   0  0  0  0  0  0  0  0  0  0  0  0
   -4.1664   -2.3097    0.4393 C   0  0  0  0  0  0  0  0  0  0  0  0
   -2.7733   -2.2276    0.4622 C   0  0  0  0  0  0  0  0  0  0  0  0
   -2.1295   -0.9885    0.2944 C   0  0  0  0  0  0  0  0  0  0  0  0
   -2.9124    0.1606    0.0827 C   0  0  0  0  0  0  0  0  0  0  0  0
   -0.6489   -0.8738    0.3031 C   0  0  0  0  0  0  0  0  0  0  0  0
    0.1584   -1.7672    1.0198 C   0  0  0  0  0  0  0  0  0  0  0  0
    1.5453   -1.6160    0.9929 C   0  0  0  0  0  0  0  0  0  0  0  0
    2.2404   -2.3802    1.7122 O   0  0  0  0  0  0  0  0  0  0  0  0
    2.1273   -0.5904    0.2084 C   0  0  0  0  0  0  0  0  0  0  0  0
    1.2353    0.3045   -0.4322 C   0  0  0  0  0  0  0  0  0  0  0  0
   -0.0795    0.1221   -0.3678 O   0  0  0  0  0  0  0  0  0  0  0  0
    1.7216    1.4029   -1.1355 C   0  0  0  0  0  0  0  0  0  0  0  0
    3.0918    1.6516   -1.2033 C   0  0  0  0  0  0  0  0  0  0  0  0
    3.5622    2.7785   -1.8770 O   0  0  0  0  0  0  0  0  0  0  0  0
    4.0059    0.7749   -0.6058 C   0  0  0  0  0  0  0  0  0  0  0  0
    5.3689    1.1081   -0.7310 O   0  0  0  0  0  0  0  0  0  0  0  0
    6.4690    0.4312   -0.1329 C   0  0  0  0  0  0  0  0  0  0  0  0
    3.5326   -0.3861    0.0629 C   0  0  0  0  0  0  0  0  0  0  0  0
    4.4635   -1.3213    0.5214 O   0  0  0  0  0  0  0  0  0  0  0  0
   -3.9932    2.5727   -1.2529 H   0  0  0  0  0  0  0  0  0  0  0  0
   -5.4810    3.2298   -0.4743 H   0  0  0  0  0  0  0  0  0  0  0  0
   -4.0400    2.8613    0.5451 H   0  0  0  0  0  0  0  0  0  0  0  0
   -6.9416   -0.4906    0.0864 H   0  0  0  0  0  0  0  0  0  0  0  0
   -4.6474   -3.2710    0.5689 H   0  0  0  0  0  0  0  0  0  0  0  0
   -2.2064   -3.1404    0.5867 H   0  0  0  0  0  0  0  0  0  0  0  0
   -2.4213    1.1150   -0.0513 H   0  0  0  0  0  0  0  0  0  0  0  0
   -0.2778   -2.5465    1.6320 H   0  0  0  0  0  0  0  0  0  0  0  0
    1.0262    2.0824   -1.6132 H   0  0  0  0  0  0  0  0  0  0  0  0
    2.9308    3.4338   -2.3230 H   0  0  0  0  0  0  0  0  0  0  0  0
    6.5825   -0.5818   -0.5724 H   0  0  0  0  0  0  0  0  0  0  0  0
    6.3361    0.3765    0.9682 H   0  0  0  0  0  0  0  0  0  0  0  0
    7.3968    1.0015   -0.3428 H   0  0  0  0  0  0  0  0  0  0  0  0
    4.2650   -2.3020    0.6562 H   0  0  0  0  0  0  0  0  0  0  0  0
  1  2  1  0
  2  3  1  0
  3  4  2  0
  4  5  1  0
  4  6  1  0
  6  7  2  0
  7  8  1  0
  8  9  2  0
  8 10  1  0
 10 11  2  0
 11 12  1  0
 12 13  2  0
 12 14  1  0
 14 15  2  0
 15 16  1  0
 15 17  1  0
 17 18  2  0
 18 19  1  0
 18 20  1  0
 20 21  1  0
 21 22  1  0
 20 23  2  0
 23 24  1  0
  9  3  1  0
 16 10  1  0
 23 14  1  0
  1 25  1  0
  1 26  1  0
  1 27  1  0
  5 28  1  0
  6 29  1  0
  7 30  1  0
  9 31  1  0
 11 32  1  0
 17 33  1  0
 19 34  1  0
 22 35  1  0
 22 36  1  0
 22 37  1  0
 24 38  1  0
M  END
>  <LIG_ID>  (164) 
163

>  <_smiles>  (164) 
COC1=C(O)C=CC(=C1)C1=CC(=O)C2=C(O1)C=C(O)C(OC)=C2O

>  <_name>  (164) 
Jaceosidin

>  <_molecular_weight>  (164) 
330.289

>  <_formula>  (164) 
C17H14O7

>  <_logP>  (164) 
2.5940000000000007

>  <_molecular_wt_calculated>  (164) 
330.2919999999998

>  <_havy_atom_count>  (164) 
24

>  <_hydrogen_acceptors>  (164) 
7

>  <_hydrogen_donors>  (164) 
3

>  <_rotatable_bonds>  (164) 
8

>  <_amide_bonds>  (164) 
0

>  <_ring_count>  (164) 
3

$$$$
Cirsilineol
     RDKit          3D

 41 43  0  0  0  0  0  0  0  0999 V2000
    5.7163    0.5719    2.6186 C   0  0  0  0  0  0  0  0  0  0  0  0
    5.8845    0.1692    1.2631 O   0  0  0  0  0  0  0  0  0  0  0  0
    4.8397    0.0468    0.3334 C   0  0  0  0  0  0  0  0  0  0  0  0
    5.1530   -0.3572   -0.9712 C   0  0  0  0  0  0  0  0  0  0  0  0
    6.4791   -0.6185   -1.3120 O   0  0  0  0  0  0  0  0  0  0  0  0
    4.1384   -0.5004   -1.9247 C   0  0  0  0  0  0  0  0  0  0  0  0
    2.8104   -0.2370   -1.5857 C   0  0  0  0  0  0  0  0  0  0  0  0
    2.4747    0.1840   -0.2886 C   0  0  0  0  0  0  0  0  0  0  0  0
    3.4974    0.3125    0.6717 C   0  0  0  0  0  0  0  0  0  0  0  0
    1.0529    0.4502    0.0464 C   0  0  0  0  0  0  0  0  0  0  0  0
    0.6860    1.3654    1.0419 C   0  0  0  0  0  0  0  0  0  0  0  0
   -0.6652    1.5769    1.3180 C   0  0  0  0  0  0  0  0  0  0  0  0
   -0.9674    2.4568    2.1654 O   0  0  0  0  0  0  0  0  0  0  0  0
   -1.6506    0.8392    0.6180 C   0  0  0  0  0  0  0  0  0  0  0  0
   -3.0516    0.9364    0.8531 C   0  0  0  0  0  0  0  0  0  0  0  0
   -3.5981    1.6579    1.9201 O   0  0  0  0  0  0  0  0  0  0  0  0
   -3.9620    0.2674    0.0142 C   0  0  0  0  0  0  0  0  0  0  0  0
   -5.3302    0.4629    0.2895 O   0  0  0  0  0  0  0  0  0  0  0  0
   -6.4304   -0.1050   -0.4126 C   0  0  0  0  0  0  0  0  0  0  0  0
   -3.4862   -0.5643   -1.0290 C   0  0  0  0  0  0  0  0  0  0  0  0
   -4.3942   -1.2372   -1.8622 O   0  0  0  0  0  0  0  0  0  0  0  0
   -4.0348   -2.0973   -2.9391 C   0  0  0  0  0  0  0  0  0  0  0  0
   -2.1016   -0.7105   -1.2093 C   0  0  0  0  0  0  0  0  0  0  0  0
   -1.1948   -0.0204   -0.4087 C   0  0  0  0  0  0  0  0  0  0  0  0
    0.1047   -0.1807   -0.6381 O   0  0  0  0  0  0  0  0  0  0  0  0
    6.7070    0.5890    3.1171 H   0  0  0  0  0  0  0  0  0  0  0  0
    5.0624   -0.1493    3.1529 H   0  0  0  0  0  0  0  0  0  0  0  0
    5.2787    1.5916    2.6627 H   0  0  0  0  0  0  0  0  0  0  0  0
    6.7386   -0.9134   -2.2462 H   0  0  0  0  0  0  0  0  0  0  0  0
    4.3789   -0.8160   -2.9321 H   0  0  0  0  0  0  0  0  0  0  0  0
    2.0454   -0.3508   -2.3440 H   0  0  0  0  0  0  0  0  0  0  0  0
    3.2480    0.5925    1.6846 H   0  0  0  0  0  0  0  0  0  0  0  0
    1.4322    1.9445    1.5713 H   0  0  0  0  0  0  0  0  0  0  0  0
   -3.0963    1.9093    2.7586 H   0  0  0  0  0  0  0  0  0  0  0  0
   -7.3730    0.2517    0.0506 H   0  0  0  0  0  0  0  0  0  0  0  0
   -6.4057   -1.2123   -0.3364 H   0  0  0  0  0  0  0  0  0  0  0  0
   -6.4211    0.2231   -1.4733 H   0  0  0  0  0  0  0  0  0  0  0  0
   -3.4485   -1.5364   -3.6972 H   0  0  0  0  0  0  0  0  0  0  0  0
   -3.4480   -2.9603   -2.5597 H   0  0  0  0  0  0  0  0  0  0  0  0
   -4.9584   -2.4810   -3.4187 H   0  0  0  0  0  0  0  0  0  0  0  0
   -1.7101   -1.3510   -1.9881 H   0  0  0  0  0  0  0  0  0  0  0  0
  1  2  1  0
  2  3  1  0
  3  4  2  0
  4  5  1  0
  4  6  1  0
  6  7  2  0
  7  8  1  0
  8  9  2  0
  8 10  1  0
 10 11  2  0
 11 12  1  0
 12 13  2  0
 12 14  1  0
 14 15  2  0
 15 16  1  0
 15 17  1  0
 17 18  1  0
 18 19  1  0
 17 20  2  0
 20 21  1  0
 21 22  1  0
 20 23  1  0
 23 24  2  0
 24 25  1  0
  9  3  1  0
 25 10  1  0
 24 14  1  0
  1 26  1  0
  1 27  1  0
  1 28  1  0
  5 29  1  0
  6 30  1  0
  7 31  1  0
  9 32  1  0
 11 33  1  0
 16 34  1  0
 19 35  1  0
 19 36  1  0
 19 37  1  0
 22 38  1  0
 22 39  1  0
 22 40  1  0
 23 41  1  0
M  END
>  <LIG_ID>  (165) 
164

>  <_smiles>  (165) 
COC1=C(O)C=CC(=C1)C1=CC(=O)C2=C(O)C(OC)=C(OC)C=C2O1

>  <_name>  (165) 
Cirsilineol

>  <_molecular_weight>  (165) 
344.315

>  <_formula>  (165) 
C18H16O7

>  <_logP>  (165) 
2.897000000000001

>  <_molecular_wt_calculated>  (165) 
344.3189999999998

>  <_havy_atom_count>  (165) 
25

>  <_hydrogen_acceptors>  (165) 
7

>  <_hydrogen_donors>  (165) 
2

>  <_rotatable_bonds>  (165) 
9

>  <_amide_bonds>  (165) 
0

>  <_ring_count>  (165) 
3

$$$$
Eupatorin
     RDKit          3D

 41 43  0  0  0  0  0  0  0  0999 V2000
    6.9742   -0.2276    1.7446 C   0  0  0  0  0  0  0  0  0  0  0  0
    6.4596   -0.1620    0.4185 O   0  0  0  0  0  0  0  0  0  0  0  0
    5.0997   -0.0211    0.1006 C   0  0  0  0  0  0  0  0  0  0  0  0
    4.7297    0.0291   -1.2499 C   0  0  0  0  0  0  0  0  0  0  0  0
    5.7113   -0.0691   -2.2349 O   0  0  0  0  0  0  0  0  0  0  0  0
    3.3817    0.1728   -1.6086 C   0  0  0  0  0  0  0  0  0  0  0  0
    2.3839    0.2748   -0.6211 C   0  0  0  0  0  0  0  0  0  0  0  0
    2.7608    0.2083    0.7303 C   0  0  0  0  0  0  0  0  0  0  0  0
    4.1033    0.0671    1.0898 C   0  0  0  0  0  0  0  0  0  0  0  0
    0.9484    0.4172   -0.9727 C   0  0  0  0  0  0  0  0  0  0  0  0
    0.5347    1.0243   -2.1687 C   0  0  0  0  0  0  0  0  0  0  0  0
   -0.8283    1.1323   -2.4468 C   0  0  0  0  0  0  0  0  0  0  0  0
   -1.1881    1.6807   -3.5235 O   0  0  0  0  0  0  0  0  0  0  0  0
   -1.7710    0.6340   -1.5224 C   0  0  0  0  0  0  0  0  0  0  0  0
   -3.1679    0.7025   -1.7288 C   0  0  0  0  0  0  0  0  0  0  0  0
   -3.6706    1.2811   -2.8983 O   0  0  0  0  0  0  0  0  0  0  0  0
   -4.0596    0.1901   -0.7616 C   0  0  0  0  0  0  0  0  0  0  0  0
   -5.4369    0.2952   -1.0400 O   0  0  0  0  0  0  0  0  0  0  0  0
   -6.5107   -0.1489   -0.2180 C   0  0  0  0  0  0  0  0  0  0  0  0
   -3.5471   -0.3963    0.4247 C   0  0  0  0  0  0  0  0  0  0  0  0
   -4.4263   -0.9078    1.3927 O   0  0  0  0  0  0  0  0  0  0  0  0
   -4.0309   -1.5168    2.6180 C   0  0  0  0  0  0  0  0  0  0  0  0
   -2.1552   -0.4574    0.6156 C   0  0  0  0  0  0  0  0  0  0  0  0
   -1.2761    0.0474   -0.3395 C   0  0  0  0  0  0  0  0  0  0  0  0
    0.0326   -0.0329   -0.1185 O   0  0  0  0  0  0  0  0  0  0  0  0
    8.0770   -0.3377    1.7004 H   0  0  0  0  0  0  0  0  0  0  0  0
    6.7318    0.7061    2.2948 H   0  0  0  0  0  0  0  0  0  0  0  0
    6.5503   -1.1059    2.2756 H   0  0  0  0  0  0  0  0  0  0  0  0
    5.4796   -0.0372   -3.2209 H   0  0  0  0  0  0  0  0  0  0  0  0
    3.1220    0.1778   -2.6586 H   0  0  0  0  0  0  0  0  0  0  0  0
    2.0158    0.2783    1.5135 H   0  0  0  0  0  0  0  0  0  0  0  0
    4.3553    0.0278    2.1406 H   0  0  0  0  0  0  0  0  0  0  0  0
    1.2521    1.4346   -2.8678 H   0  0  0  0  0  0  0  0  0  0  0  0
   -4.6615    1.3545   -3.0938 H   0  0  0  0  0  0  0  0  0  0  0  0
   -7.4692    0.0825   -0.7258 H   0  0  0  0  0  0  0  0  0  0  0  0
   -6.4544   -1.2480   -0.0713 H   0  0  0  0  0  0  0  0  0  0  0  0
   -6.4976    0.3858    0.7549 H   0  0  0  0  0  0  0  0  0  0  0  0
   -3.4178   -2.4202    2.4156 H   0  0  0  0  0  0  0  0  0  0  0  0
   -4.9379   -1.8229    3.1783 H   0  0  0  0  0  0  0  0  0  0  0  0
   -3.4591   -0.7938    3.2372 H   0  0  0  0  0  0  0  0  0  0  0  0
   -1.7377   -0.8993    1.5103 H   0  0  0  0  0  0  0  0  0  0  0  0
  1  2  1  0
  2  3  1  0
  3  4  2  0
  4  5  1  0
  4  6  1  0
  6  7  2  0
  7  8  1  0
  8  9  2  0
  7 10  1  0
 10 11  2  0
 11 12  1  0
 12 13  2  0
 12 14  1  0
 14 15  2  0
 15 16  1  0
 15 17  1  0
 17 18  1  0
 18 19  1  0
 17 20  2  0
 20 21  1  0
 21 22  1  0
 20 23  1  0
 23 24  2  0
 24 25  1  0
  9  3  1  0
 25 10  1  0
 24 14  1  0
  1 26  1  0
  1 27  1  0
  1 28  1  0
  5 29  1  0
  6 30  1  0
  8 31  1  0
  9 32  1  0
 11 33  1  0
 16 34  1  0
 19 35  1  0
 19 36  1  0
 19 37  1  0
 22 38  1  0
 22 39  1  0
 22 40  1  0
 23 41  1  0
M  END
>  <LIG_ID>  (166) 
165

>  <_smiles>  (166) 
COC1=C(O)C=C(C=C1)C1=CC(=O)C2=C(O)C(OC)=C(OC)C=C2O1

>  <_name>  (166) 
Eupatorin

>  <_molecular_weight>  (166) 
344.315

>  <_formula>  (166) 
C18H16O7

>  <_logP>  (166) 
2.897000000000001

>  <_molecular_wt_calculated>  (166) 
344.3189999999998

>  <_havy_atom_count>  (166) 
25

>  <_hydrogen_acceptors>  (166) 
7

>  <_hydrogen_donors>  (166) 
2

>  <_rotatable_bonds>  (166) 
9

>  <_amide_bonds>  (166) 
0

>  <_ring_count>  (166) 
3

$$$$
6-Hydroxyluteolin
     RDKit          3D

 32 34  0  0  0  0  0  0  0  0999 V2000
   -4.5833    2.3109    0.9014 O   0  0  0  0  0  0  0  0  0  0  0  0
   -3.8100    1.2431    0.4451 C   0  0  0  0  0  0  0  0  0  0  0  0
   -2.4248    1.3584    0.4723 C   0  0  0  0  0  0  0  0  0  0  0  0
   -1.6139    0.3162    0.0261 C   0  0  0  0  0  0  0  0  0  0  0  0
   -2.1841   -0.8866   -0.4662 C   0  0  0  0  0  0  0  0  0  0  0  0
   -3.6114   -1.0031   -0.4932 C   0  0  0  0  0  0  0  0  0  0  0  0
   -4.2964   -2.1346   -0.9540 O   0  0  0  0  0  0  0  0  0  0  0  0
   -4.4058    0.0691   -0.0347 C   0  0  0  0  0  0  0  0  0  0  0  0
   -5.7998   -0.0206   -0.0510 O   0  0  0  0  0  0  0  0  0  0  0  0
   -1.2736   -1.8847   -0.8954 C   0  0  0  0  0  0  0  0  0  0  0  0
   -1.6578   -2.9918   -1.3505 O   0  0  0  0  0  0  0  0  0  0  0  0
    0.1017   -1.6558   -0.8208 C   0  0  0  0  0  0  0  0  0  0  0  0
    0.5813   -0.4352   -0.3199 C   0  0  0  0  0  0  0  0  0  0  0  0
   -0.2969    0.4810    0.0749 O   0  0  0  0  0  0  0  0  0  0  0  0
    2.0379   -0.1129   -0.2076 C   0  0  0  0  0  0  0  0  0  0  0  0
    2.4226    1.1418    0.3090 C   0  0  0  0  0  0  0  0  0  0  0  0
    3.7716    1.4912    0.4342 C   0  0  0  0  0  0  0  0  0  0  0  0
    4.1014    2.7440    0.9509 O   0  0  0  0  0  0  0  0  0  0  0  0
    4.7672    0.5850    0.0419 C   0  0  0  0  0  0  0  0  0  0  0  0
    6.1131    0.9270    0.1640 O   0  0  0  0  0  0  0  0  0  0  0  0
    4.4018   -0.6633   -0.4724 C   0  0  0  0  0  0  0  0  0  0  0  0
    3.0544   -1.0122   -0.5974 C   0  0  0  0  0  0  0  0  0  0  0  0
   -5.5958    2.2827    0.9050 H   0  0  0  0  0  0  0  0  0  0  0  0
   -1.9720    2.2694    0.8448 H   0  0  0  0  0  0  0  0  0  0  0  0
   -3.8889   -2.9812   -1.3131 H   0  0  0  0  0  0  0  0  0  0  0  0
   -6.2922   -0.8401   -0.3849 H   0  0  0  0  0  0  0  0  0  0  0  0
    0.7650   -2.4378   -1.1564 H   0  0  0  0  0  0  0  0  0  0  0  0
    1.6764    1.8623    0.6203 H   0  0  0  0  0  0  0  0  0  0  0  0
    5.0622    3.0448    1.0617 H   0  0  0  0  0  0  0  0  0  0  0  0
    6.8502    0.2890   -0.1128 H   0  0  0  0  0  0  0  0  0  0  0  0
    5.1647   -1.3685   -0.7776 H   0  0  0  0  0  0  0  0  0  0  0  0
    2.8354   -1.9876   -1.0003 H   0  0  0  0  0  0  0  0  0  0  0  0
  1  2  1  0
  2  3  2  0
  3  4  1  0
  4  5  2  0
  5  6  1  0
  6  7  1  0
  6  8  2  0
  8  9  1  0
  5 10  1  0
 10 11  2  0
 10 12  1  0
 12 13  2  0
 13 14  1  0
 13 15  1  0
 15 16  2  0
 16 17  1  0
 17 18  1  0
 17 19  2  0
 19 20  1  0
 19 21  1  0
 21 22  2  0
  8  2  1  0
 22 15  1  0
 14  4  1  0
  1 23  1  0
  3 24  1  0
  7 25  1  0
  9 26  1  0
 12 27  1  0
 16 28  1  0
 18 29  1  0
 20 30  1  0
 21 31  1  0
 22 32  1  0
M  END
>  <LIG_ID>  (167) 
166

>  <_smiles>  (167) 
OC1=CC2=C(C(O)=C1O)C(=O)C=C(O2)C1=CC(O)=C(O)C=C1

>  <_name>  (167) 
6-Hydroxyluteolin

>  <_molecular_weight>  (167) 
302.236

>  <_formula>  (167) 
C15H10O7

>  <_logP>  (167) 
1.988

>  <_molecular_wt_calculated>  (167) 
302.23799999999983

>  <_havy_atom_count>  (167) 
22

>  <_hydrogen_acceptors>  (167) 
7

>  <_hydrogen_donors>  (167) 
5

>  <_rotatable_bonds>  (167) 
6

>  <_amide_bonds>  (167) 
0

>  <_ring_count>  (167) 
3

$$$$
6-Hydroxyluteolin 7-O-rhamnoside
     RDKit          3D

 52 55  0  0  0  0  0  0  0  0999 V2000
   -6.7729   -0.1886   -0.8517 C   0  0  0  0  0  0  0  0  0  0  0  0
   -5.4995    0.4486   -0.2851 C   0  0  0  0  0  0  0  0  0  0  0  0
   -4.3957   -0.0491   -1.0346 O   0  0  0  0  0  0  0  0  0  0  0  0
   -3.1705    0.2977   -0.4202 C   0  0  0  0  0  0  0  0  0  0  0  0
   -2.1109    0.0868   -1.3549 O   0  0  0  0  0  0  0  0  0  0  0  0
   -0.8637    0.7040   -1.2193 C   0  0  0  0  0  0  0  0  0  0  0  0
    0.2334   -0.0670   -0.8310 C   0  0  0  0  0  0  0  0  0  0  0  0
    1.4847    0.5211   -0.6449 C   0  0  0  0  0  0  0  0  0  0  0  0
    1.6593    1.9072   -0.8616 C   0  0  0  0  0  0  0  0  0  0  0  0
    2.9450    2.4440   -0.6435 C   0  0  0  0  0  0  0  0  0  0  0  0
    3.1808    3.6721   -0.8034 O   0  0  0  0  0  0  0  0  0  0  0  0
    3.9829    1.6045   -0.2369 C   0  0  0  0  0  0  0  0  0  0  0  0
    3.7325    0.2349   -0.0548 C   0  0  0  0  0  0  0  0  0  0  0  0
    2.5053   -0.2380   -0.2587 O   0  0  0  0  0  0  0  0  0  0  0  0
    4.7970   -0.7058    0.3770 C   0  0  0  0  0  0  0  0  0  0  0  0
    6.1542   -0.4771    0.0770 C   0  0  0  0  0  0  0  0  0  0  0  0
    7.1400   -1.3867    0.4881 C   0  0  0  0  0  0  0  0  0  0  0  0
    8.4806   -1.1496    0.1874 O   0  0  0  0  0  0  0  0  0  0  0  0
    6.7733   -2.5402    1.2002 C   0  0  0  0  0  0  0  0  0  0  0  0
    7.7305   -3.4609    1.6252 O   0  0  0  0  0  0  0  0  0  0  0  0
    5.4268   -2.7776    1.4885 C   0  0  0  0  0  0  0  0  0  0  0  0
    4.4454   -1.8726    1.0773 C   0  0  0  0  0  0  0  0  0  0  0  0
    0.5561    2.6866   -1.2851 C   0  0  0  0  0  0  0  0  0  0  0  0
    0.7092    4.0553   -1.5213 O   0  0  0  0  0  0  0  0  0  0  0  0
   -0.6994    2.0785   -1.4782 C   0  0  0  0  0  0  0  0  0  0  0  0
   -1.7649    2.8479   -1.9497 O   0  0  0  0  0  0  0  0  0  0  0  0
   -2.9595   -0.5601    0.8533 C   0  0  0  0  0  0  0  0  0  0  0  0
   -2.2629   -1.7396    0.5374 O   0  0  0  0  0  0  0  0  0  0  0  0
   -4.3124   -0.9038    1.5291 C   0  0  0  0  0  0  0  0  0  0  0  0
   -4.7976   -2.1302    1.0389 O   0  0  0  0  0  0  0  0  0  0  0  0
   -5.3405    0.2130    1.2563 C   0  0  0  0  0  0  0  0  0  0  0  0
   -6.5708   -0.0818    1.8705 O   0  0  0  0  0  0  0  0  0  0  0  0
   -7.6762    0.2754   -0.4016 H   0  0  0  0  0  0  0  0  0  0  0  0
   -6.8173   -0.0264   -1.9498 H   0  0  0  0  0  0  0  0  0  0  0  0
   -6.7825   -1.2816   -0.6554 H   0  0  0  0  0  0  0  0  0  0  0  0
   -5.5871    1.5443   -0.4663 H   0  0  0  0  0  0  0  0  0  0  0  0
   -3.1799    1.3772   -0.1341 H   0  0  0  0  0  0  0  0  0  0  0  0
    0.1094   -1.1284   -0.6566 H   0  0  0  0  0  0  0  0  0  0  0  0
    4.9603    2.0272   -0.0428 H   0  0  0  0  0  0  0  0  0  0  0  0
    6.4544    0.3892   -0.4968 H   0  0  0  0  0  0  0  0  0  0  0  0
    8.7725   -0.3259   -0.3255 H   0  0  0  0  0  0  0  0  0  0  0  0
    8.7183   -3.3343    1.4405 H   0  0  0  0  0  0  0  0  0  0  0  0
    5.1396   -3.6675    2.0342 H   0  0  0  0  0  0  0  0  0  0  0  0
    3.4100   -2.0800    1.3186 H   0  0  0  0  0  0  0  0  0  0  0  0
   -0.0569    4.6448   -1.8237 H   0  0  0  0  0  0  0  0  0  0  0  0
   -2.6621    2.4462   -2.1917 H   0  0  0  0  0  0  0  0  0  0  0  0
   -2.3463    0.0475    1.5604 H   0  0  0  0  0  0  0  0  0  0  0  0
   -1.9175   -2.1051    1.3936 H   0  0  0  0  0  0  0  0  0  0  0  0
   -4.1373   -0.9842    2.6281 H   0  0  0  0  0  0  0  0  0  0  0  0
   -5.4379   -2.4788    1.7128 H   0  0  0  0  0  0  0  0  0  0  0  0
   -4.9404    1.1566    1.6990 H   0  0  0  0  0  0  0  0  0  0  0  0
   -6.4389    0.0302    2.8482 H   0  0  0  0  0  0  0  0  0  0  0  0
  1  2  1  0
  2  3  1  0
  3  4  1  0
  4  5  1  0
  5  6  1  0
  6  7  2  0
  7  8  1  0
  8  9  2  0
  9 10  1  0
 10 11  2  0
 10 12  1  0
 12 13  2  0
 13 14  1  0
 13 15  1  0
 15 16  2  0
 16 17  1  0
 17 18  1  0
 17 19  2  0
 19 20  1  0
 19 21  1  0
 21 22  2  0
  9 23  1  0
 23 24  1  0
 23 25  2  0
 25 26  1  0
  4 27  1  0
 27 28  1  0
 27 29  1  0
 29 30  1  0
 29 31  1  0
 31 32  1  0
 31  2  1  0
 25  6  1  0
 14  8  1  0
 22 15  1  0
  1 33  1  0
  1 34  1  0
  1 35  1  0
  2 36  1  0
  4 37  1  0
  7 38  1  0
 12 39  1  0
 16 40  1  0
 18 41  1  0
 20 42  1  0
 21 43  1  0
 22 44  1  0
 24 45  1  0
 26 46  1  0
 27 47  1  0
 28 48  1  0
 29 49  1  0
 30 50  1  0
 31 51  1  0
 32 52  1  0
M  END
>  <LIG_ID>  (168) 
167

>  <_smiles>  (168) 
CC1OC(OC2=CC3=C(C(=O)C=C(O3)C3=CC(O)=C(O)C=C3)C(O)=C2O)C(O)C(O)C1O

>  <_name>  (168) 
6-Hydroxyluteolin 7-O-rhamnoside

>  <_molecular_weight>  (168) 
448.377

>  <_formula>  (168) 
C21H20O11

>  <_logP>  (168) 
0.4886999999999991

>  <_molecular_wt_calculated>  (168) 
448.3799999999999

>  <_havy_atom_count>  (168) 
32

>  <_hydrogen_acceptors>  (168) 
11

>  <_hydrogen_donors>  (168) 
7

>  <_rotatable_bonds>  (168) 
11

>  <_amide_bonds>  (168) 
0

>  <_ring_count>  (168) 
4

$$$$
Scutellarein
     RDKit          3D

 31 33  0  0  0  0  0  0  0  0999 V2000
    6.2972    0.4617    0.2357 O   0  0  0  0  0  0  0  0  0  0  0  0
    4.9196    0.3701    0.0503 C   0  0  0  0  0  0  0  0  0  0  0  0
    4.1173   -0.3059    0.9774 C   0  0  0  0  0  0  0  0  0  0  0  0
    2.7358   -0.3917    0.7809 C   0  0  0  0  0  0  0  0  0  0  0  0
    2.1365    0.1893   -0.3516 C   0  0  0  0  0  0  0  0  0  0  0  0
    2.9516    0.8780   -1.2721 C   0  0  0  0  0  0  0  0  0  0  0  0
    4.3329    0.9622   -1.0711 C   0  0  0  0  0  0  0  0  0  0  0  0
    0.6658    0.0916   -0.5316 C   0  0  0  0  0  0  0  0  0  0  0  0
    0.0707    0.1345   -1.7998 C   0  0  0  0  0  0  0  0  0  0  0  0
   -1.3169    0.0400   -1.9140 C   0  0  0  0  0  0  0  0  0  0  0  0
   -1.8170    0.0137   -3.0684 O   0  0  0  0  0  0  0  0  0  0  0  0
   -2.1137   -0.0631   -0.7485 C   0  0  0  0  0  0  0  0  0  0  0  0
   -1.4263   -0.1525    0.4894 C   0  0  0  0  0  0  0  0  0  0  0  0
   -0.1012   -0.0651    0.5422 O   0  0  0  0  0  0  0  0  0  0  0  0
   -2.1300   -0.3442    1.6788 C   0  0  0  0  0  0  0  0  0  0  0  0
   -3.5208   -0.4596    1.6703 C   0  0  0  0  0  0  0  0  0  0  0  0
   -4.2108   -0.6771    2.8622 O   0  0  0  0  0  0  0  0  0  0  0  0
   -4.2233   -0.3474    0.4620 C   0  0  0  0  0  0  0  0  0  0  0  0
   -5.6160   -0.4416    0.4414 O   0  0  0  0  0  0  0  0  0  0  0  0
   -3.5393   -0.1200   -0.7432 C   0  0  0  0  0  0  0  0  0  0  0  0
   -4.3245    0.0672   -1.8856 O   0  0  0  0  0  0  0  0  0  0  0  0
    6.7522    0.0439    1.0390 H   0  0  0  0  0  0  0  0  0  0  0  0
    4.5626   -0.7652    1.8507 H   0  0  0  0  0  0  0  0  0  0  0  0
    2.1369   -0.9234    1.5101 H   0  0  0  0  0  0  0  0  0  0  0  0
    2.5266    1.3740   -2.1341 H   0  0  0  0  0  0  0  0  0  0  0  0
    4.9476    1.4953   -1.7853 H   0  0  0  0  0  0  0  0  0  0  0  0
    0.6724    0.1976   -2.6976 H   0  0  0  0  0  0  0  0  0  0  0  0
   -1.5889   -0.4188    2.6142 H   0  0  0  0  0  0  0  0  0  0  0  0
   -3.7273   -0.7592    3.7490 H   0  0  0  0  0  0  0  0  0  0  0  0
   -6.1601   -0.5990    1.2812 H   0  0  0  0  0  0  0  0  0  0  0  0
   -4.0097    0.5147   -2.7330 H   0  0  0  0  0  0  0  0  0  0  0  0
  1  2  1  0
  2  3  2  0
  3  4  1  0
  4  5  2  0
  5  6  1  0
  6  7  2  0
  5  8  1  0
  8  9  2  0
  9 10  1  0
 10 11  2  0
 10 12  1  0
 12 13  2  0
 13 14  1  0
 13 15  1  0
 15 16  2  0
 16 17  1  0
 16 18  1  0
 18 19  1  0
 18 20  2  0
 20 21  1  0
  7  2  1  0
 14  8  1  0
 20 12  1  0
  1 22  1  0
  3 23  1  0
  4 24  1  0
  6 25  1  0
  7 26  1  0
  9 27  1  0
 15 28  1  0
 17 29  1  0
 19 30  1  0
 21 31  1  0
M  END
>  <LIG_ID>  (169) 
168

>  <_smiles>  (169) 
OC1=CC=C(C=C1)C1=CC(=O)C2=C(O1)C=C(O)C(O)=C2O

>  <_name>  (169) 
Scutellarein

>  <_molecular_weight>  (169) 
286.236

>  <_formula>  (169) 
C15H10O6

>  <_logP>  (169) 
2.2824000000000004

>  <_molecular_wt_calculated>  (169) 
286.2389999999998

>  <_havy_atom_count>  (169) 
21

>  <_hydrogen_acceptors>  (169) 
6

>  <_hydrogen_donors>  (169) 
4

>  <_rotatable_bonds>  (169) 
5

>  <_amide_bonds>  (169) 
0

>  <_ring_count>  (169) 
3

$$$$
Apigenin 7-O-(6''-malonyl-apiosyl-glucoside)
     RDKit          3D

 76 80  0  0  0  0  0  0  0  0999 V2000
   -4.8247    0.5111    1.5474 C   0  0  1  0  0  0  0  0  0  0  0  0
   -4.6942   -0.7623    2.3952 C   0  0  0  0  0  0  0  0  0  0  0  0
   -5.6487   -0.7539    3.4570 O   0  0  0  0  0  0  0  0  0  0  0  0
   -6.8046   -1.5430    3.4773 C   0  0  0  0  0  0  0  0  0  0  0  0
   -7.0090   -2.4189    2.5928 O   0  0  0  0  0  0  0  0  0  0  0  0
   -7.8331   -1.3016    4.5316 C   0  0  0  0  0  0  0  0  0  0  0  0
   -8.7341   -0.1887    4.1059 C   0  0  0  0  0  0  0  0  0  0  0  0
   -8.3420    1.1321    4.3002 O   0  0  0  0  0  0  0  0  0  0  0  0
   -9.8269   -0.4439    3.5327 O   0  0  0  0  0  0  0  0  0  0  0  0
   -3.7251    0.5846    0.6624 O   0  0  0  0  0  0  0  0  0  0  0  0
   -4.2211    0.6211   -0.6565 C   0  0  1  0  0  0  0  0  0  0  0  0
   -3.4333   -0.2412   -1.4602 O   0  0  0  0  0  0  0  0  0  0  0  0
   -3.1480    0.3303   -2.7240 C   0  0  0  0  0  0  0  0  0  0  0  0
   -1.8508    1.1536   -2.6669 C   0  0  1  0  0  0  0  0  0  0  0  0
   -0.8162    0.3252   -2.1573 O   0  0  0  0  0  0  0  0  0  0  0  0
    0.4221    1.0070   -2.1727 C   0  0  1  0  0  0  0  0  0  0  0  0
    1.3463    0.2499   -1.3873 O   0  0  0  0  0  0  0  0  0  0  0  0
    2.5972    0.6887   -0.9211 C   0  0  0  0  0  0  0  0  0  0  0  0
    2.9955    2.0353   -0.9475 C   0  0  0  0  0  0  0  0  0  0  0  0
    4.2479    2.4313   -0.4612 C   0  0  0  0  0  0  0  0  0  0  0  0
    4.5084    3.8050   -0.4534 O   0  0  0  0  0  0  0  0  0  0  0  0
    5.1615    1.4474    0.0169 C   0  0  0  0  0  0  0  0  0  0  0  0
    6.4922    1.7118    0.4196 C   0  0  0  0  0  0  0  0  0  0  0  0
    7.0066    2.8552    0.3129 O   0  0  0  0  0  0  0  0  0  0  0  0
    7.2848    0.6762    0.9164 C   0  0  0  0  0  0  0  0  0  0  0  0
    6.7650   -0.6239    0.9816 C   0  0  0  0  0  0  0  0  0  0  0  0
    5.5315   -0.8544    0.5438 O   0  0  0  0  0  0  0  0  0  0  0  0
    4.7336    0.0960    0.0682 C   0  0  0  0  0  0  0  0  0  0  0  0
    3.4650   -0.2642   -0.3898 C   0  0  0  0  0  0  0  0  0  0  0  0
    7.5630   -1.7626    1.5026 C   0  0  0  0  0  0  0  0  0  0  0  0
    7.2756   -3.0680    1.0638 C   0  0  0  0  0  0  0  0  0  0  0  0
    8.0068   -4.1576    1.5460 C   0  0  0  0  0  0  0  0  0  0  0  0
    9.0281   -3.9624    2.4793 C   0  0  0  0  0  0  0  0  0  0  0  0
    9.7485   -5.0576    2.9506 O   0  0  0  0  0  0  0  0  0  0  0  0
    9.3146   -2.6694    2.9338 C   0  0  0  0  0  0  0  0  0  0  0  0
    8.5863   -1.5766    2.4534 C   0  0  0  0  0  0  0  0  0  0  0  0
    0.9413    1.1258   -3.6290 C   0  0  2  0  0  0  0  0  0  0  0  0
    1.6867    2.3095   -3.7576 O   0  0  0  0  0  0  0  0  0  0  0  0
   -0.2224    1.1258   -4.6571 C   0  0  1  0  0  0  0  0  0  0  0  0
   -0.4726   -0.1700   -5.1488 O   0  0  0  0  0  0  0  0  0  0  0  0
   -1.5078    1.7470   -4.0731 C   0  0  2  0  0  0  0  0  0  0  0  0
   -1.3281    3.1370   -3.9696 O   0  0  0  0  0  0  0  0  0  0  0  0
   -5.6628    0.1366   -0.6345 C   0  0  2  0  0  0  0  0  0  0  0  0
   -6.4318    0.7396   -1.6432 O   0  0  0  0  0  0  0  0  0  0  0  0
   -6.1259    0.5459    0.7368 C   0  0  2  0  0  0  0  0  0  0  0  0
   -6.6435    1.8528    0.7116 O   0  0  0  0  0  0  0  0  0  0  0  0
   -4.7784    1.3846    2.2355 H   0  0  0  0  0  0  0  0  0  0  0  0
   -3.6804   -0.7806    2.8489 H   0  0  0  0  0  0  0  0  0  0  0  0
   -4.7867   -1.6706    1.7603 H   0  0  0  0  0  0  0  0  0  0  0  0
   -8.4242   -2.2266    4.7087 H   0  0  0  0  0  0  0  0  0  0  0  0
   -7.3306   -1.0271    5.4832 H   0  0  0  0  0  0  0  0  0  0  0  0
   -8.9307    1.8987    3.9970 H   0  0  0  0  0  0  0  0  0  0  0  0
   -4.1908    1.6898   -0.9834 H   0  0  0  0  0  0  0  0  0  0  0  0
   -3.9905    0.9450   -3.1191 H   0  0  0  0  0  0  0  0  0  0  0  0
   -3.0086   -0.5025   -3.4457 H   0  0  0  0  0  0  0  0  0  0  0  0
   -2.0305    1.9858   -1.9480 H   0  0  0  0  0  0  0  0  0  0  0  0
    0.2948    2.0129   -1.7093 H   0  0  0  0  0  0  0  0  0  0  0  0
    2.3265    2.8031   -1.3055 H   0  0  0  0  0  0  0  0  0  0  0  0
    5.2231    4.2521    0.1002 H   0  0  0  0  0  0  0  0  0  0  0  0
    8.3067    0.8847    1.2069 H   0  0  0  0  0  0  0  0  0  0  0  0
    3.1571   -1.3021   -0.3506 H   0  0  0  0  0  0  0  0  0  0  0  0
    6.4918   -3.2457    0.3377 H   0  0  0  0  0  0  0  0  0  0  0  0
    7.7789   -5.1555    1.1933 H   0  0  0  0  0  0  0  0  0  0  0  0
   10.4940   -4.9489    3.6283 H   0  0  0  0  0  0  0  0  0  0  0  0
   10.0970   -2.5104    3.6650 H   0  0  0  0  0  0  0  0  0  0  0  0
    8.8121   -0.5953    2.8480 H   0  0  0  0  0  0  0  0  0  0  0  0
    1.6016    0.2512   -3.8433 H   0  0  0  0  0  0  0  0  0  0  0  0
    2.2770    2.1957   -4.5479 H   0  0  0  0  0  0  0  0  0  0  0  0
    0.0801    1.7367   -5.5366 H   0  0  0  0  0  0  0  0  0  0  0  0
   -0.6474   -0.7691   -4.3786 H   0  0  0  0  0  0  0  0  0  0  0  0
   -2.3302    1.5523   -4.8026 H   0  0  0  0  0  0  0  0  0  0  0  0
   -2.2317    3.5354   -3.8653 H   0  0  0  0  0  0  0  0  0  0  0  0
   -5.7035   -0.9767   -0.7143 H   0  0  0  0  0  0  0  0  0  0  0  0
   -6.2657    0.2207   -2.4727 H   0  0  0  0  0  0  0  0  0  0  0  0
   -6.9026   -0.1623    1.1033 H   0  0  0  0  0  0  0  0  0  0  0  0
   -7.1098    1.9874    1.5778 H   0  0  0  0  0  0  0  0  0  0  0  0
  1  2  1  0
  2  3  1  0
  3  4  1  0
  4  5  2  0
  4  6  1  0
  6  7  1  0
  7  8  1  0
  7  9  2  0
  1 10  1  0
 10 11  1  0
 11 12  1  0
 12 13  1  0
 13 14  1  0
 14 15  1  0
 15 16  1  0
 16 17  1  0
 17 18  1  0
 18 19  2  0
 19 20  1  0
 20 21  1  0
 20 22  2  0
 22 23  1  0
 23 24  2  0
 23 25  1  0
 25 26  2  0
 26 27  1  0
 27 28  1  0
 28 29  2  0
 26 30  1  0
 30 31  2  0
 31 32  1  0
 32 33  2  0
 33 34  1  0
 33 35  1  0
 35 36  2  0
 16 37  1  0
 37 38  1  0
 37 39  1  0
 39 40  1  0
 39 41  1  0
 41 42  1  0
 11 43  1  0
 43 44  1  0
 43 45  1  0
 45 46  1  0
 45  1  1  0
 41 14  1  0
 29 18  1  0
 36 30  1  0
 28 22  1  0
  1 47  1  1
  2 48  1  0
  2 49  1  0
  6 50  1  0
  6 51  1  0
  8 52  1  0
 11 53  1  6
 13 54  1  0
 13 55  1  0
 14 56  1  1
 16 57  1  1
 19 58  1  0
 21 59  1  0
 25 60  1  0
 29 61  1  0
 31 62  1  0
 32 63  1  0
 34 64  1  0
 35 65  1  0
 36 66  1  0
 37 67  1  6
 38 68  1  0
 39 69  1  6
 40 70  1  0
 41 71  1  6
 42 72  1  0
 43 73  1  1
 44 74  1  0
 45 75  1  1
 46 76  1  0
M  END
>  <LIG_ID>  (170) 
169

>  <_smiles>  (170) 
[H][C@]1(COC(=O)CC(O)=O)O[C@@]([H])(OC[C@@]2([H])O[C@@]([H])(OC3=CC(O)=C4C(=O)C=C(OC4=C3)C3=CC=C(O)C=C3)[C@]([H])(O)[C@@]([H])(O)[C@]2([H])O)[C@]([H])(O)[C@]1([H])O

>  <_name>  (170) 
Apigenin 7-O-(6''-malonyl-apiosyl-glucoside)

>  <_molecular_weight>  (170) 
650.538

>  <_formula>  (170) 
C29H30O17

>  <_logP>  (170) 
-1.461199999999999

>  <_molecular_wt_calculated>  (170) 
650.5420000000015

>  <_havy_atom_count>  (170) 
46

>  <_hydrogen_acceptors>  (170) 
17

>  <_hydrogen_donors>  (170) 
8

>  <_rotatable_bonds>  (170) 
17

>  <_amide_bonds>  (170) 
0

>  <_ring_count>  (170) 
5

$$$$
Chrysoeriol 7-O-apiosyl-glucoside
     RDKit          3D

 72 76  0  0  0  0  0  0  0  0999 V2000
    7.6385    5.1237   -1.4562 C   0  0  0  0  0  0  0  0  0  0  0  0
    7.2694    4.4773   -2.6702 O   0  0  0  0  0  0  0  0  0  0  0  0
    6.3683    3.4040   -2.7613 C   0  0  0  0  0  0  0  0  0  0  0  0
    6.0952    2.8553   -4.0268 C   0  0  0  0  0  0  0  0  0  0  0  0
    6.7070    3.3547   -5.1765 O   0  0  0  0  0  0  0  0  0  0  0  0
    5.1953    1.7938   -4.1491 C   0  0  0  0  0  0  0  0  0  0  0  0
    4.5659    1.2660   -3.0212 C   0  0  0  0  0  0  0  0  0  0  0  0
    4.8342    1.7864   -1.7451 C   0  0  0  0  0  0  0  0  0  0  0  0
    5.7301    2.8665   -1.6248 C   0  0  0  0  0  0  0  0  0  0  0  0
    4.1441    1.2092   -0.5640 C   0  0  0  0  0  0  0  0  0  0  0  0
    4.7194    1.2304    0.7137 C   0  0  0  0  0  0  0  0  0  0  0  0
    4.0297    0.6711    1.7903 C   0  0  0  0  0  0  0  0  0  0  0  0
    4.5467    0.7564    2.9340 O   0  0  0  0  0  0  0  0  0  0  0  0
    2.7732    0.0546    1.5774 C   0  0  0  0  0  0  0  0  0  0  0  0
    1.9949   -0.5782    2.5918 C   0  0  0  0  0  0  0  0  0  0  0  0
    2.4322   -0.7738    3.9055 O   0  0  0  0  0  0  0  0  0  0  0  0
    0.7190   -1.0654    2.2817 C   0  0  0  0  0  0  0  0  0  0  0  0
    0.2130   -0.9981    0.9742 C   0  0  0  0  0  0  0  0  0  0  0  0
   -1.0536   -1.4901    0.6243 O   0  0  0  0  0  0  0  0  0  0  0  0
   -1.9682   -2.1292    1.5166 C   0  0  2  0  0  0  0  0  0  0  0  0
   -1.4113   -3.3409    2.0203 O   0  0  0  0  0  0  0  0  0  0  0  0
   -1.5784   -4.4624    1.1624 C   0  0  2  0  0  0  0  0  0  0  0  0
   -0.7298   -4.3416   -0.1221 C   0  0  0  0  0  0  0  0  0  0  0  0
   -0.6551   -5.5772   -0.7820 O   0  0  0  0  0  0  0  0  0  0  0  0
   -3.0775   -4.7828    0.8763 C   0  0  1  0  0  0  0  0  0  0  0  0
   -3.4759   -5.9252    1.5906 O   0  0  0  0  0  0  0  0  0  0  0  0
   -3.9885   -3.6096    1.2733 C   0  0  2  0  0  0  0  0  0  0  0  0
   -5.2458   -3.7466    0.6622 O   0  0  0  0  0  0  0  0  0  0  0  0
   -3.3474   -2.2961    0.8267 C   0  0  1  0  0  0  0  0  0  0  0  0
   -4.1999   -1.2226    1.2006 O   0  0  0  0  0  0  0  0  0  0  0  0
   -4.3457   -0.2805    0.1541 C   0  0  2  0  0  0  0  0  0  0  0  0
   -3.1084    0.3444   -0.1301 O   0  0  0  0  0  0  0  0  0  0  0  0
   -3.2974    1.7381   -0.0458 C   0  0  0  0  0  0  0  0  0  0  0  0
   -4.7916    2.0366   -0.0830 C   0  0  0  0  0  0  0  0  0  0  0  0
   -5.1995    2.1274   -1.4309 O   0  0  0  0  0  0  0  0  0  0  0  0
   -5.1462    3.3260    0.6909 C   0  0  0  0  0  0  0  0  0  0  0  0
   -4.5760    4.4371    0.0554 O   0  0  0  0  0  0  0  0  0  0  0  0
   -5.3484    0.7893    0.5731 C   0  0  1  0  0  0  0  0  0  0  0  0
   -6.6450    0.4912    0.1231 O   0  0  0  0  0  0  0  0  0  0  0  0
    0.9929   -0.4261   -0.0283 C   0  0  0  0  0  0  0  0  0  0  0  0
    2.2535    0.1009    0.2575 C   0  0  0  0  0  0  0  0  0  0  0  0
    2.9492    0.6526   -0.7311 O   0  0  0  0  0  0  0  0  0  0  0  0
    8.3688    5.9276   -1.6814 H   0  0  0  0  0  0  0  0  0  0  0  0
    6.7451    5.5793   -0.9792 H   0  0  0  0  0  0  0  0  0  0  0  0
    8.1133    4.3958   -0.7648 H   0  0  0  0  0  0  0  0  0  0  0  0
    7.3667    4.1227   -5.1473 H   0  0  0  0  0  0  0  0  0  0  0  0
    4.9834    1.3750   -5.1248 H   0  0  0  0  0  0  0  0  0  0  0  0
    3.8768    0.4397   -3.1460 H   0  0  0  0  0  0  0  0  0  0  0  0
    5.9100    3.3055   -0.6547 H   0  0  0  0  0  0  0  0  0  0  0  0
    5.6982    1.6622    0.8796 H   0  0  0  0  0  0  0  0  0  0  0  0
    3.3913   -0.7185    4.2110 H   0  0  0  0  0  0  0  0  0  0  0  0
    0.1393   -1.5215    3.0722 H   0  0  0  0  0  0  0  0  0  0  0  0
   -2.1192   -1.4596    2.3919 H   0  0  0  0  0  0  0  0  0  0  0  0
   -1.1498   -5.3252    1.7187 H   0  0  0  0  0  0  0  0  0  0  0  0
    0.2938   -3.9831    0.1331 H   0  0  0  0  0  0  0  0  0  0  0  0
   -1.1806   -3.6053   -0.8184 H   0  0  0  0  0  0  0  0  0  0  0  0
    0.0037   -6.1278   -0.2835 H   0  0  0  0  0  0  0  0  0  0  0  0
   -3.2231   -4.9697   -0.2149 H   0  0  0  0  0  0  0  0  0  0  0  0
   -3.0947   -6.7083    1.1136 H   0  0  0  0  0  0  0  0  0  0  0  0
   -4.1094   -3.5839    2.3834 H   0  0  0  0  0  0  0  0  0  0  0  0
   -5.7393   -4.4392    1.1744 H   0  0  0  0  0  0  0  0  0  0  0  0
   -3.1954   -2.3696   -0.2790 H   0  0  0  0  0  0  0  0  0  0  0  0
   -4.7201   -0.7754   -0.7732 H   0  0  0  0  0  0  0  0  0  0  0  0
   -2.8390    2.0932    0.9039 H   0  0  0  0  0  0  0  0  0  0  0  0
   -2.7706    2.2377   -0.8873 H   0  0  0  0  0  0  0  0  0  0  0  0
   -6.1562    2.3931   -1.4458 H   0  0  0  0  0  0  0  0  0  0  0  0
   -4.7732    3.2635    1.7385 H   0  0  0  0  0  0  0  0  0  0  0  0
   -6.2527    3.4442    0.7256 H   0  0  0  0  0  0  0  0  0  0  0  0
   -4.8419    5.2282    0.5923 H   0  0  0  0  0  0  0  0  0  0  0  0
   -5.3420    0.9052    1.6841 H   0  0  0  0  0  0  0  0  0  0  0  0
   -6.9742   -0.2536    0.6909 H   0  0  0  0  0  0  0  0  0  0  0  0
    0.6089   -0.3784   -1.0402 H   0  0  0  0  0  0  0  0  0  0  0  0
  1  2  1  0
  2  3  1  0
  3  4  2  0
  4  5  1  0
  4  6  1  0
  6  7  2  0
  7  8  1  0
  8  9  2  0
  8 10  1  0
 10 11  2  0
 11 12  1  0
 12 13  2  0
 12 14  1  0
 14 15  2  0
 15 16  1  0
 15 17  1  0
 17 18  2  0
 18 19  1  0
 19 20  1  0
 20 21  1  0
 21 22  1  0
 22 23  1  0
 23 24  1  0
 22 25  1  0
 25 26  1  0
 25 27  1  0
 27 28  1  0
 27 29  1  0
 29 30  1  0
 30 31  1  0
 31 32  1  0
 32 33  1  0
 33 34  1  0
 34 35  1  0
 34 36  1  0
 36 37  1  0
 34 38  1  0
 38 39  1  0
 18 40  1  0
 40 41  2  0
 41 42  1  0
  9  3  1  0
 42 10  1  0
 41 14  1  0
 29 20  1  0
 38 31  1  0
  1 43  1  0
  1 44  1  0
  1 45  1  0
  5 46  1  0
  6 47  1  0
  7 48  1  0
  9 49  1  0
 11 50  1  0
 16 51  1  0
 17 52  1  0
 20 53  1  1
 22 54  1  1
 23 55  1  0
 23 56  1  0
 24 57  1  0
 25 58  1  6
 26 59  1  0
 27 60  1  1
 28 61  1  0
 29 62  1  6
 31 63  1  6
 33 64  1  0
 33 65  1  0
 35 66  1  0
 36 67  1  0
 36 68  1  0
 37 69  1  0
 38 70  1  1
 39 71  1  0
 40 72  1  0
M  END
>  <LIG_ID>  (171) 
170

>  <_smiles>  (171) 
COC1=C(O)C=CC(=C1)C1=CC(=O)C2=C(O)C=C(O[C@@H]3O[C@H](CO)[C@@H](O)[C@H](O)[C@H]3O[C@@H]3OCC(O)(CO)[C@H]3O)C=C2O1

>  <_name>  (171) 
Chrysoeriol 7-O-apiosyl-glucoside

>  <_molecular_weight>  (171) 
594.518

>  <_formula>  (171) 
C27H30O15

>  <_logP>  (171) 
-1.4766000000000008

>  <_molecular_wt_calculated>  (171) 
594.5220000000015

>  <_havy_atom_count>  (171) 
42

>  <_hydrogen_acceptors>  (171) 
15

>  <_hydrogen_donors>  (171) 
8

>  <_rotatable_bonds>  (171) 
17

>  <_amide_bonds>  (171) 
0

>  <_ring_count>  (171) 
5

$$$$
Chrysoeriol 7-O-(6''-malonyl-apiosyl-glucoside)
     RDKit          3D

 80 84  0  0  0  0  0  0  0  0999 V2000
   -2.3088   -1.4585   -1.7517 C   0  0  2  0  0  0  0  0  0  0  0  0
   -2.0176   -0.4761   -2.7312 O   0  0  0  0  0  0  0  0  0  0  0  0
   -2.0869    0.8388   -2.1976 C   0  0  2  0  0  0  0  0  0  0  0  0
   -3.3783    1.5297   -2.6528 C   0  0  1  0  0  0  0  0  0  0  0  0
   -4.5047    0.7924   -2.2516 O   0  0  0  0  0  0  0  0  0  0  0  0
   -3.4425    2.9319   -2.0226 C   0  0  2  0  0  0  0  0  0  0  0  0
   -4.3738    3.7175   -2.7240 O   0  0  0  0  0  0  0  0  0  0  0  0
   -2.0512    3.6330   -2.0420 C   0  0  1  0  0  0  0  0  0  0  0  0
   -1.4218    3.7958   -0.6395 C   0  0  0  0  0  0  0  0  0  0  0  0
   -2.2477    4.6069    0.1950 O   0  0  0  0  0  0  0  0  0  0  0  0
   -2.3473    5.9965    0.0676 C   0  0  0  0  0  0  0  0  0  0  0  0
   -1.5976    6.6288   -0.7257 O   0  0  0  0  0  0  0  0  0  0  0  0
   -3.3892    6.7277    0.8473 C   0  0  0  0  0  0  0  0  0  0  0  0
   -4.7115    6.5942    0.1651 C   0  0  0  0  0  0  0  0  0  0  0  0
   -5.0844    7.5145   -0.8094 O   0  0  0  0  0  0  0  0  0  0  0  0
   -5.4687    5.6247    0.4389 O   0  0  0  0  0  0  0  0  0  0  0  0
   -1.1484    3.0352   -2.9621 O   0  0  0  0  0  0  0  0  0  0  0  0
   -0.8727    1.6591   -2.7173 C   0  0  1  0  0  0  0  0  0  0  0  0
    0.2366    1.5501   -1.8207 O   0  0  0  0  0  0  0  0  0  0  0  0
    1.0329    0.4079   -1.6326 C   0  0  0  0  0  0  0  0  0  0  0  0
    1.7772    0.3174   -0.4585 C   0  0  0  0  0  0  0  0  0  0  0  0
    2.5815   -0.7944   -0.2027 C   0  0  0  0  0  0  0  0  0  0  0  0
    2.6660   -1.8564   -1.1403 C   0  0  0  0  0  0  0  0  0  0  0  0
    1.8831   -1.7755   -2.3294 C   0  0  0  0  0  0  0  0  0  0  0  0
    1.8064   -2.7915   -3.2871 O   0  0  0  0  0  0  0  0  0  0  0  0
    1.1078   -0.6351   -2.5708 C   0  0  0  0  0  0  0  0  0  0  0  0
    3.5482   -2.9176   -0.8248 C   0  0  0  0  0  0  0  0  0  0  0  0
    3.7550   -3.8725   -1.6172 O   0  0  0  0  0  0  0  0  0  0  0  0
    4.2375   -2.9093    0.3884 C   0  0  0  0  0  0  0  0  0  0  0  0
    4.0769   -1.8313    1.2693 C   0  0  0  0  0  0  0  0  0  0  0  0
    3.2665   -0.8327    0.9351 O   0  0  0  0  0  0  0  0  0  0  0  0
    4.7814   -1.7723    2.5751 C   0  0  0  0  0  0  0  0  0  0  0  0
    6.0257   -2.3988    2.7717 C   0  0  0  0  0  0  0  0  0  0  0  0
    6.6706   -2.3185    4.0072 C   0  0  0  0  0  0  0  0  0  0  0  0
    6.0903   -1.6068    5.0636 C   0  0  0  0  0  0  0  0  0  0  0  0
    6.7358   -1.5292    6.2967 O   0  0  0  0  0  0  0  0  0  0  0  0
    4.8577   -0.9651    4.8854 C   0  0  0  0  0  0  0  0  0  0  0  0
    4.3100   -0.2576    5.9673 O   0  0  0  0  0  0  0  0  0  0  0  0
    3.0699    0.4413    5.9295 C   0  0  0  0  0  0  0  0  0  0  0  0
    4.2100   -1.0478    3.6368 C   0  0  0  0  0  0  0  0  0  0  0  0
   -1.3125   -1.4833   -0.7515 O   0  0  0  0  0  0  0  0  0  0  0  0
   -1.0760   -2.8323   -0.4104 C   0  0  0  0  0  0  0  0  0  0  0  0
   -1.9729   -3.7434   -1.2533 C   0  0  2  0  0  0  0  0  0  0  0  0
   -3.1127   -4.0835   -0.4939 O   0  0  0  0  0  0  0  0  0  0  0  0
   -1.2240   -5.0124   -1.7297 C   0  0  0  0  0  0  0  0  0  0  0  0
   -0.8170   -5.7892   -0.6347 O   0  0  0  0  0  0  0  0  0  0  0  0
   -2.3419   -2.8253   -2.4059 C   0  0  1  0  0  0  0  0  0  0  0  0
   -3.6151   -3.0951   -2.9330 O   0  0  0  0  0  0  0  0  0  0  0  0
   -3.2944   -1.2603   -1.2690 H   0  0  0  0  0  0  0  0  0  0  0  0
   -2.0647    0.8531   -1.0810 H   0  0  0  0  0  0  0  0  0  0  0  0
   -3.3657    1.6334   -3.7654 H   0  0  0  0  0  0  0  0  0  0  0  0
   -4.6648    0.1052   -2.9502 H   0  0  0  0  0  0  0  0  0  0  0  0
   -3.7807    2.8292   -0.9634 H   0  0  0  0  0  0  0  0  0  0  0  0
   -5.2774    3.4212   -2.4380 H   0  0  0  0  0  0  0  0  0  0  0  0
   -2.2097    4.6676   -2.4159 H   0  0  0  0  0  0  0  0  0  0  0  0
   -0.4093    4.2476   -0.7244 H   0  0  0  0  0  0  0  0  0  0  0  0
   -1.3064    2.8101   -0.1476 H   0  0  0  0  0  0  0  0  0  0  0  0
   -3.4481    6.3052    1.8733 H   0  0  0  0  0  0  0  0  0  0  0  0
   -3.1202    7.8026    0.9326 H   0  0  0  0  0  0  0  0  0  0  0  0
   -5.9688    7.4264   -1.2955 H   0  0  0  0  0  0  0  0  0  0  0  0
   -0.5791    1.2563   -3.7081 H   0  0  0  0  0  0  0  0  0  0  0  0
    1.7240    1.1185    0.2688 H   0  0  0  0  0  0  0  0  0  0  0  0
    2.0805   -3.7501   -3.1385 H   0  0  0  0  0  0  0  0  0  0  0  0
    0.5458   -0.5952   -3.4913 H   0  0  0  0  0  0  0  0  0  0  0  0
    4.8781   -3.7454    0.6382 H   0  0  0  0  0  0  0  0  0  0  0  0
    6.5180   -2.9303    1.9686 H   0  0  0  0  0  0  0  0  0  0  0  0
    7.6283   -2.8054    4.1409 H   0  0  0  0  0  0  0  0  0  0  0  0
    7.6284   -1.9812    6.4576 H   0  0  0  0  0  0  0  0  0  0  0  0
    3.1058    1.2417    5.1606 H   0  0  0  0  0  0  0  0  0  0  0  0
    2.2406   -0.2639    5.7101 H   0  0  0  0  0  0  0  0  0  0  0  0
    2.8866    0.9078    6.9190 H   0  0  0  0  0  0  0  0  0  0  0  0
    3.2554   -0.5606    3.4897 H   0  0  0  0  0  0  0  0  0  0  0  0
   -1.2676   -2.9768    0.6749 H   0  0  0  0  0  0  0  0  0  0  0  0
   -0.0011   -3.0493   -0.5863 H   0  0  0  0  0  0  0  0  0  0  0  0
   -3.6486   -4.7351   -1.0175 H   0  0  0  0  0  0  0  0  0  0  0  0
   -1.8717   -5.6116   -2.4101 H   0  0  0  0  0  0  0  0  0  0  0  0
   -0.3202   -4.7269   -2.3100 H   0  0  0  0  0  0  0  0  0  0  0  0
   -1.6116   -6.3052   -0.3388 H   0  0  0  0  0  0  0  0  0  0  0  0
   -1.5680   -2.8635   -3.2107 H   0  0  0  0  0  0  0  0  0  0  0  0
   -3.5152   -3.8969   -3.5093 H   0  0  0  0  0  0  0  0  0  0  0  0
  1  2  1  0
  2  3  1  0
  3  4  1  0
  4  5  1  0
  4  6  1  0
  6  7  1  0
  6  8  1  0
  8  9  1  0
  9 10  1  0
 10 11  1  0
 11 12  2  0
 11 13  1  0
 13 14  1  0
 14 15  1  0
 14 16  2  0
  8 17  1  0
 17 18  1  0
 18 19  1  0
 19 20  1  0
 20 21  2  0
 21 22  1  0
 22 23  2  0
 23 24  1  0
 24 25  1  0
 24 26  2  0
 23 27  1  0
 27 28  2  0
 27 29  1  0
 29 30  2  0
 30 31  1  0
 30 32  1  0
 32 33  2  0
 33 34  1  0
 34 35  2  0
 35 36  1  0
 35 37  1  0
 37 38  1  0
 38 39  1  0
 37 40  2  0
  1 41  1  0
 41 42  1  0
 42 43  1  0
 43 44  1  1
 43 45  1  0
 45 46  1  0
 43 47  1  0
 47 48  1  0
 47  1  1  0
 18  3  1  0
 26 20  1  0
 40 32  1  0
 31 22  1  0
  1 49  1  1
  3 50  1  1
  4 51  1  6
  5 52  1  0
  6 53  1  1
  7 54  1  0
  8 55  1  6
  9 56  1  0
  9 57  1  0
 13 58  1  0
 13 59  1  0
 15 60  1  0
 18 61  1  6
 21 62  1  0
 25 63  1  0
 26 64  1  0
 29 65  1  0
 33 66  1  0
 34 67  1  0
 36 68  1  0
 39 69  1  0
 39 70  1  0
 39 71  1  0
 40 72  1  0
 42 73  1  0
 42 74  1  0
 44 75  1  0
 45 76  1  0
 45 77  1  0
 46 78  1  0
 47 79  1  6
 48 80  1  0
M  END
>  <LIG_ID>  (172) 
171

>  <_smiles>  (172) 
[H][C@@]1(O[C@]2([H])[C@@]([H])(O)[C@]([H])(O)[C@@]([H])(COC(=O)CC(O)=O)O[C@@]2([H])OC2=CC3=C(C(O)=C2)C(=O)C=C(O3)C2=CC=C(O)C(OC)=C2)OC[C@](O)(CO)[C@@]1([H])O

>  <_name>  (172) 
Chrysoeriol 7-O-(6''-malonyl-apiosyl-glucoside)

>  <_molecular_weight>  (172) 
680.564

>  <_formula>  (172) 
C30H32O18

>  <_logP>  (172) 
-1.450999999999999

>  <_molecular_wt_calculated>  (172) 
680.5680000000015

>  <_havy_atom_count>  (172) 
48

>  <_hydrogen_acceptors>  (172) 
18

>  <_hydrogen_donors>  (172) 
8

>  <_rotatable_bonds>  (172) 
19

>  <_amide_bonds>  (172) 
0

>  <_ring_count>  (172) 
5

$$$$
Chrysoeriol 7-O-glucoside
     RDKit          3D

 55 58  0  0  0  0  0  0  0  0999 V2000
    5.8577    3.1622   -1.0323 C   0  0  0  0  0  0  0  0  0  0  0  0
    6.8431    2.1410   -0.9149 O   0  0  0  0  0  0  0  0  0  0  0  0
    6.5841    0.8277   -0.4905 C   0  0  0  0  0  0  0  0  0  0  0  0
    7.6514   -0.0848   -0.4210 C   0  0  0  0  0  0  0  0  0  0  0  0
    8.9488    0.2958   -0.7640 O   0  0  0  0  0  0  0  0  0  0  0  0
    7.4218   -1.3989   -0.0064 C   0  0  0  0  0  0  0  0  0  0  0  0
    6.1378   -1.8170    0.3461 C   0  0  0  0  0  0  0  0  0  0  0  0
    5.0570   -0.9183    0.2965 C   0  0  0  0  0  0  0  0  0  0  0  0
    5.2892    0.4003   -0.1339 C   0  0  0  0  0  0  0  0  0  0  0  0
    3.6784   -1.3381    0.6550 C   0  0  0  0  0  0  0  0  0  0  0  0
    3.4341   -2.3698    1.5762 C   0  0  0  0  0  0  0  0  0  0  0  0
    2.1183   -2.7231    1.8780 C   0  0  0  0  0  0  0  0  0  0  0  0
    1.9088   -3.6496    2.7070 O   0  0  0  0  0  0  0  0  0  0  0  0
    1.0543   -2.0380    1.2575 C   0  0  0  0  0  0  0  0  0  0  0  0
   -0.3057   -2.3334    1.5042 C   0  0  0  0  0  0  0  0  0  0  0  0
   -0.6680   -3.3473    2.3924 O   0  0  0  0  0  0  0  0  0  0  0  0
   -1.3085   -1.6015    0.8505 C   0  0  0  0  0  0  0  0  0  0  0  0
   -0.9775   -0.5689   -0.0477 C   0  0  0  0  0  0  0  0  0  0  0  0
   -1.9397    0.1952   -0.7317 O   0  0  0  0  0  0  0  0  0  0  0  0
   -3.3560    0.1608   -0.5363 C   0  0  2  0  0  0  0  0  0  0  0  0
   -3.9614    0.6673   -1.7126 O   0  0  0  0  0  0  0  0  0  0  0  0
   -5.3727    0.5411   -1.6522 C   0  0  2  0  0  0  0  0  0  0  0  0
   -5.9417    0.9474   -3.0219 C   0  0  0  0  0  0  0  0  0  0  0  0
   -7.3162    0.6804   -3.1029 O   0  0  0  0  0  0  0  0  0  0  0  0
   -5.9362    1.4355   -0.5167 C   0  0  1  0  0  0  0  0  0  0  0  0
   -7.3344    1.3196   -0.4151 O   0  0  0  0  0  0  0  0  0  0  0  0
   -5.2678    1.0757    0.8260 C   0  0  2  0  0  0  0  0  0  0  0  0
   -5.6171    2.0216    1.8036 O   0  0  0  0  0  0  0  0  0  0  0  0
   -3.7389    1.0498    0.6664 C   0  0  1  0  0  0  0  0  0  0  0  0
   -3.1491    0.5535    1.8396 O   0  0  0  0  0  0  0  0  0  0  0  0
    0.3690   -0.2856   -0.2909 C   0  0  0  0  0  0  0  0  0  0  0  0
    1.3808   -1.0049    0.3496 C   0  0  0  0  0  0  0  0  0  0  0  0
    2.6504   -0.7051    0.0943 O   0  0  0  0  0  0  0  0  0  0  0  0
    5.3929    3.3601   -0.0433 H   0  0  0  0  0  0  0  0  0  0  0  0
    6.3424    4.0939   -1.3891 H   0  0  0  0  0  0  0  0  0  0  0  0
    5.0816    2.8616   -1.7675 H   0  0  0  0  0  0  0  0  0  0  0  0
    9.1728    1.2344   -1.0719 H   0  0  0  0  0  0  0  0  0  0  0  0
    8.2435   -2.1028    0.0358 H   0  0  0  0  0  0  0  0  0  0  0  0
    5.9940   -2.8502    0.6318 H   0  0  0  0  0  0  0  0  0  0  0  0
    4.4600    1.0936   -0.1777 H   0  0  0  0  0  0  0  0  0  0  0  0
    4.2472   -2.8793    2.0772 H   0  0  0  0  0  0  0  0  0  0  0  0
   -1.6384   -3.5709    2.5804 H   0  0  0  0  0  0  0  0  0  0  0  0
   -2.3384   -1.8505    1.0570 H   0  0  0  0  0  0  0  0  0  0  0  0
   -3.6827   -0.8913   -0.3779 H   0  0  0  0  0  0  0  0  0  0  0  0
   -5.6556   -0.5235   -1.4748 H   0  0  0  0  0  0  0  0  0  0  0  0
   -5.7752    2.0324   -3.1935 H   0  0  0  0  0  0  0  0  0  0  0  0
   -5.4038    0.3987   -3.8287 H   0  0  0  0  0  0  0  0  0  0  0  0
   -7.4095   -0.3022   -3.2096 H   0  0  0  0  0  0  0  0  0  0  0  0
   -5.6955    2.4964   -0.7514 H   0  0  0  0  0  0  0  0  0  0  0  0
   -7.5442    0.3677   -0.2253 H   0  0  0  0  0  0  0  0  0  0  0  0
   -5.5997    0.0586    1.1459 H   0  0  0  0  0  0  0  0  0  0  0  0
   -6.5307    1.7895    2.1152 H   0  0  0  0  0  0  0  0  0  0  0  0
   -3.3701    2.0838    0.4627 H   0  0  0  0  0  0  0  0  0  0  0  0
   -3.1162    1.3052    2.4872 H   0  0  0  0  0  0  0  0  0  0  0  0
    0.6315    0.5043   -0.9843 H   0  0  0  0  0  0  0  0  0  0  0  0
  1  2  1  0
  2  3  1  0
  3  4  2  0
  4  5  1  0
  4  6  1  0
  6  7  2  0
  7  8  1  0
  8  9  2  0
  8 10  1  0
 10 11  2  0
 11 12  1  0
 12 13  2  0
 12 14  1  0
 14 15  2  0
 15 16  1  0
 15 17  1  0
 17 18  2  0
 18 19  1  0
 19 20  1  0
 20 21  1  0
 21 22  1  0
 22 23  1  0
 23 24  1  0
 22 25  1  0
 25 26  1  0
 25 27  1  0
 27 28  1  0
 27 29  1  0
 29 30  1  0
 18 31  1  0
 31 32  2  0
 32 33  1  0
  9  3  1  0
 33 10  1  0
 32 14  1  0
 29 20  1  0
  1 34  1  0
  1 35  1  0
  1 36  1  0
  5 37  1  0
  6 38  1  0
  7 39  1  0
  9 40  1  0
 11 41  1  0
 16 42  1  0
 17 43  1  0
 20 44  1  1
 22 45  1  1
 23 46  1  0
 23 47  1  0
 24 48  1  0
 25 49  1  6
 26 50  1  0
 27 51  1  1
 28 52  1  0
 29 53  1  6
 30 54  1  0
 31 55  1  0
M  END
>  <LIG_ID>  (173) 
172

>  <_smiles>  (173) 
COC1=C(O)C=CC(=C1)C1=CC(=O)C2=C(O)C=C(O[C@@H]3O[C@H](CO)[C@@H](O)[C@H](O)[C@H]3O)C=C2O1

>  <_name>  (173) 
Chrysoeriol 7-O-glucoside

>  <_molecular_weight>  (173) 
462.404

>  <_formula>  (173) 
C22H22O11

>  <_logP>  (173) 
0.05849999999999955

>  <_molecular_wt_calculated>  (173) 
462.40699999999987

>  <_havy_atom_count>  (173) 
33

>  <_hydrogen_acceptors>  (173) 
11

>  <_hydrogen_donors>  (173) 
6

>  <_rotatable_bonds>  (173) 
12

>  <_amide_bonds>  (173) 
0

>  <_ring_count>  (173) 
4

$$$$
Chrysoeriol 7-O-(6''-malonyl-glucoside)
     RDKit          3D

 63 66  0  0  0  0  0  0  0  0999 V2000
    3.9751   -1.3734    0.8352 C   0  0  1  0  0  0  0  0  0  0  0  0
    4.2607   -2.2643   -0.3856 C   0  0  0  0  0  0  0  0  0  0  0  0
    5.6522   -2.2934   -0.7006 O   0  0  0  0  0  0  0  0  0  0  0  0
    6.3241   -1.2347   -1.3219 C   0  0  0  0  0  0  0  0  0  0  0  0
    5.6967   -0.2142   -1.7173 O   0  0  0  0  0  0  0  0  0  0  0  0
    7.7937   -1.3414   -1.5637 C   0  0  0  0  0  0  0  0  0  0  0  0
    8.0461   -2.0509   -2.8536 C   0  0  0  0  0  0  0  0  0  0  0  0
    8.1001   -1.3295   -4.0421 O   0  0  0  0  0  0  0  0  0  0  0  0
    8.1708   -3.3048   -2.8711 O   0  0  0  0  0  0  0  0  0  0  0  0
    2.5683   -1.2694    0.9753 O   0  0  0  0  0  0  0  0  0  0  0  0
    2.2331   -0.3235    1.9759 C   0  0  1  0  0  0  0  0  0  0  0  0
    0.8174   -0.1448    1.9865 O   0  0  0  0  0  0  0  0  0  0  0  0
    0.0687    0.4004    0.9313 C   0  0  0  0  0  0  0  0  0  0  0  0
   -1.3142    0.4832    1.0796 C   0  0  0  0  0  0  0  0  0  0  0  0
   -2.1153    0.9941    0.0566 C   0  0  0  0  0  0  0  0  0  0  0  0
   -1.5347    1.4528   -1.1547 C   0  0  0  0  0  0  0  0  0  0  0  0
   -0.1144    1.4184   -1.2827 C   0  0  0  0  0  0  0  0  0  0  0  0
    0.5847    1.9285   -2.3811 O   0  0  0  0  0  0  0  0  0  0  0  0
    0.6597    0.8681   -0.2536 C   0  0  0  0  0  0  0  0  0  0  0  0
   -2.4260    1.8918   -2.1632 C   0  0  0  0  0  0  0  0  0  0  0  0
   -2.0244    2.2447   -3.3021 O   0  0  0  0  0  0  0  0  0  0  0  0
   -3.7987    1.9159   -1.9136 C   0  0  0  0  0  0  0  0  0  0  0  0
   -4.2862    1.4699   -0.6777 C   0  0  0  0  0  0  0  0  0  0  0  0
   -3.4309    1.0323    0.2402 O   0  0  0  0  0  0  0  0  0  0  0  0
   -5.7358    1.4767   -0.3571 C   0  0  0  0  0  0  0  0  0  0  0  0
   -6.1445    1.6015    0.9807 C   0  0  0  0  0  0  0  0  0  0  0  0
   -7.5005    1.6044    1.3111 C   0  0  0  0  0  0  0  0  0  0  0  0
   -8.4716    1.4728    0.3118 C   0  0  0  0  0  0  0  0  0  0  0  0
   -9.8256    1.4782    0.6432 O   0  0  0  0  0  0  0  0  0  0  0  0
   -8.0869    1.3313   -1.0281 C   0  0  0  0  0  0  0  0  0  0  0  0
   -9.0909    1.1918   -1.9994 O   0  0  0  0  0  0  0  0  0  0  0  0
   -8.8495    1.0432   -3.3949 C   0  0  0  0  0  0  0  0  0  0  0  0
   -6.7164    1.3295   -1.3578 C   0  0  0  0  0  0  0  0  0  0  0  0
    2.6823   -0.8371    3.3550 C   0  0  2  0  0  0  0  0  0  0  0  0
    2.3863    0.1134    4.3456 O   0  0  0  0  0  0  0  0  0  0  0  0
    4.2000   -1.0916    3.3349 C   0  0  1  0  0  0  0  0  0  0  0  0
    4.6238   -1.6784    4.5406 O   0  0  0  0  0  0  0  0  0  0  0  0
    4.5951   -1.9647    2.1250 C   0  0  2  0  0  0  0  0  0  0  0  0
    5.9947   -2.0000    2.0108 O   0  0  0  0  0  0  0  0  0  0  0  0
    4.4164   -0.3696    0.6328 H   0  0  0  0  0  0  0  0  0  0  0  0
    3.9210   -3.3012   -0.1766 H   0  0  0  0  0  0  0  0  0  0  0  0
    3.6859   -1.8993   -1.2652 H   0  0  0  0  0  0  0  0  0  0  0  0
    8.2677   -1.8974   -0.7264 H   0  0  0  0  0  0  0  0  0  0  0  0
    8.2470   -0.3274   -1.6013 H   0  0  0  0  0  0  0  0  0  0  0  0
    8.2546   -1.7975   -4.9271 H   0  0  0  0  0  0  0  0  0  0  0  0
    2.7104    0.6654    1.7771 H   0  0  0  0  0  0  0  0  0  0  0  0
   -1.7741    0.1322    1.9956 H   0  0  0  0  0  0  0  0  0  0  0  0
    0.2068    2.5696   -3.0612 H   0  0  0  0  0  0  0  0  0  0  0  0
    1.7333    0.8369   -0.3810 H   0  0  0  0  0  0  0  0  0  0  0  0
   -4.4683    2.2929   -2.6762 H   0  0  0  0  0  0  0  0  0  0  0  0
   -5.4135    1.7100    1.7726 H   0  0  0  0  0  0  0  0  0  0  0  0
   -7.7964    1.7100    2.3471 H   0  0  0  0  0  0  0  0  0  0  0  0
  -10.1366    1.5775    1.6025 H   0  0  0  0  0  0  0  0  0  0  0  0
   -9.8209    0.9626   -3.9241 H   0  0  0  0  0  0  0  0  0  0  0  0
   -8.3048    1.9290   -3.7848 H   0  0  0  0  0  0  0  0  0  0  0  0
   -8.2639    0.1190   -3.5849 H   0  0  0  0  0  0  0  0  0  0  0  0
   -6.4156    1.1871   -2.3852 H   0  0  0  0  0  0  0  0  0  0  0  0
    2.1563   -1.7975    3.5726 H   0  0  0  0  0  0  0  0  0  0  0  0
    1.4257    0.0048    4.5718 H   0  0  0  0  0  0  0  0  0  0  0  0
    4.7163   -0.1099    3.2372 H   0  0  0  0  0  0  0  0  0  0  0  0
    4.1707   -2.5582    4.6238 H   0  0  0  0  0  0  0  0  0  0  0  0
    4.1942   -2.9970    2.2664 H   0  0  0  0  0  0  0  0  0  0  0  0
    6.3204   -2.6687    2.6682 H   0  0  0  0  0  0  0  0  0  0  0  0
  1  2  1  0
  2  3  1  0
  3  4  1  0
  4  5  2  0
  4  6  1  0
  6  7  1  0
  7  8  1  0
  7  9  2  0
  1 10  1  0
 10 11  1  0
 11 12  1  0
 12 13  1  0
 13 14  2  0
 14 15  1  0
 15 16  2  0
 16 17  1  0
 17 18  1  0
 17 19  2  0
 16 20  1  0
 20 21  2  0
 20 22  1  0
 22 23  2  0
 23 24  1  0
 23 25  1  0
 25 26  2  0
 26 27  1  0
 27 28  2  0
 28 29  1  0
 28 30  1  0
 30 31  1  0
 31 32  1  0
 30 33  2  0
 11 34  1  0
 34 35  1  0
 34 36  1  0
 36 37  1  0
 36 38  1  0
 38 39  1  0
 38  1  1  0
 19 13  1  0
 33 25  1  0
 24 15  1  0
  1 40  1  6
  2 41  1  0
  2 42  1  0
  6 43  1  0
  6 44  1  0
  8 45  1  0
 11 46  1  6
 14 47  1  0
 18 48  1  0
 19 49  1  0
 22 50  1  0
 26 51  1  0
 27 52  1  0
 29 53  1  0
 32 54  1  0
 32 55  1  0
 32 56  1  0
 33 57  1  0
 34 58  1  1
 35 59  1  0
 36 60  1  6
 37 61  1  0
 38 62  1  1
 39 63  1  0
M  END
>  <LIG_ID>  (174) 
173

>  <_smiles>  (174) 
[H][C@]1(COC(=O)CC(O)=O)O[C@@]([H])(OC2=CC3=C(C(O)=C2)C(=O)C=C(O3)C2=CC=C(O)C(OC)=C2)[C@]([H])(O)[C@@]([H])(O)[C@]1([H])O

>  <_name>  (174) 
Chrysoeriol 7-O-(6''-malonyl-glucoside)

>  <_molecular_weight>  (174) 
548.45

>  <_formula>  (174) 
C25H24O14

>  <_logP>  (174) 
0.08409999999999956

>  <_molecular_wt_calculated>  (174) 
548.4530000000013

>  <_havy_atom_count>  (174) 
39

>  <_hydrogen_acceptors>  (174) 
14

>  <_hydrogen_donors>  (174) 
6

>  <_rotatable_bonds>  (174) 
14

>  <_amide_bonds>  (174) 
0

>  <_ring_count>  (174) 
4

$$$$
Apigenin 7-O-diglucuronide
     RDKit          3D

 70 74  0  0  0  0  0  0  0  0999 V2000
   -4.8072   -2.6390    4.3537 O   0  0  0  0  0  0  0  0  0  0  0  0
   -4.5180   -1.5766    3.4817 C   0  0  2  0  0  0  0  0  0  0  0  0
   -4.0456   -2.1258    2.1239 C   0  0  1  0  0  0  0  0  0  0  0  0
   -5.1178   -2.7736    1.4880 O   0  0  0  0  0  0  0  0  0  0  0  0
   -3.5322   -0.9704    1.2433 C   0  0  2  0  0  0  0  0  0  0  0  0
   -3.0375   -1.5154    0.0355 O   0  0  0  0  0  0  0  0  0  0  0  0
   -2.8742   -0.5134   -0.9574 C   0  0  2  0  0  0  0  0  0  0  0  0
   -4.0721   -0.5548   -1.9392 C   0  0  1  0  0  0  0  0  0  0  0  0
   -4.3004    0.7364   -2.4463 O   0  0  0  0  0  0  0  0  0  0  0  0
   -3.7997   -1.5319   -3.1046 C   0  0  2  0  0  0  0  0  0  0  0  0
   -3.7539   -2.8493   -2.6153 O   0  0  0  0  0  0  0  0  0  0  0  0
   -2.4409   -1.1957   -3.7975 C   0  0  2  0  0  0  0  0  0  0  0  0
   -1.6299   -0.3163   -3.0297 O   0  0  0  0  0  0  0  0  0  0  0  0
   -1.5407   -0.7714   -1.6930 C   0  0  1  0  0  0  0  0  0  0  0  0
   -0.4977   -0.0662   -1.0209 O   0  0  0  0  0  0  0  0  0  0  0  0
    0.8680   -0.1606   -1.3292 C   0  0  0  0  0  0  0  0  0  0  0  0
    1.3584   -0.9916   -2.3528 C   0  0  0  0  0  0  0  0  0  0  0  0
    2.7327   -1.0564   -2.6269 C   0  0  0  0  0  0  0  0  0  0  0  0
    3.1874   -1.8900   -3.6497 O   0  0  0  0  0  0  0  0  0  0  0  0
    3.6377   -0.2800   -1.8670 C   0  0  0  0  0  0  0  0  0  0  0  0
    5.0314   -0.2941   -2.0762 C   0  0  0  0  0  0  0  0  0  0  0  0
    5.5550   -1.0174   -2.9662 O   0  0  0  0  0  0  0  0  0  0  0  0
    5.8553    0.5036   -1.2811 C   0  0  0  0  0  0  0  0  0  0  0  0
    5.2822    1.3120   -0.2855 C   0  0  0  0  0  0  0  0  0  0  0  0
    3.9631    1.2946   -0.1080 O   0  0  0  0  0  0  0  0  0  0  0  0
    3.1375    0.5525   -0.8392 C   0  0  0  0  0  0  0  0  0  0  0  0
    1.7656    0.6041   -0.5806 C   0  0  0  0  0  0  0  0  0  0  0  0
    6.1085    2.1797    0.5914 C   0  0  0  0  0  0  0  0  0  0  0  0
    7.3474    2.6992    0.1658 C   0  0  0  0  0  0  0  0  0  0  0  0
    8.0988    3.5221    1.0106 C   0  0  0  0  0  0  0  0  0  0  0  0
    7.6248    3.8449    2.2848 C   0  0  0  0  0  0  0  0  0  0  0  0
    8.3856    4.6649    3.1150 O   0  0  0  0  0  0  0  0  0  0  0  0
    6.3894    3.3442    2.7127 C   0  0  0  0  0  0  0  0  0  0  0  0
    5.6345    2.5219    1.8711 C   0  0  0  0  0  0  0  0  0  0  0  0
   -2.6782   -0.5706   -5.1411 C   0  0  0  0  0  0  0  0  0  0  0  0
   -2.6282   -1.3564   -6.2884 O   0  0  0  0  0  0  0  0  0  0  0  0
   -2.9625    0.6542   -5.2311 O   0  0  0  0  0  0  0  0  0  0  0  0
   -2.4767   -0.2897    1.9031 O   0  0  0  0  0  0  0  0  0  0  0  0
   -2.9512    0.3530    3.0729 C   0  0  1  0  0  0  0  0  0  0  0  0
   -3.4264   -0.6897    4.1060 C   0  0  1  0  0  0  0  0  0  0  0  0
   -3.9375   -0.0310    5.2372 O   0  0  0  0  0  0  0  0  0  0  0  0
   -1.8407    1.1816    3.6483 C   0  0  0  0  0  0  0  0  0  0  0  0
   -2.1067    2.4622    4.1234 O   0  0  0  0  0  0  0  0  0  0  0  0
   -0.6745    0.7101    3.7331 O   0  0  0  0  0  0  0  0  0  0  0  0
   -5.7041   -2.9826    4.1022 H   0  0  0  0  0  0  0  0  0  0  0  0
   -5.4315   -0.9525    3.3275 H   0  0  0  0  0  0  0  0  0  0  0  0
   -3.2127   -2.8475    2.3027 H   0  0  0  0  0  0  0  0  0  0  0  0
   -4.7254   -3.3904    0.8162 H   0  0  0  0  0  0  0  0  0  0  0  0
   -4.3898   -0.2821    1.0338 H   0  0  0  0  0  0  0  0  0  0  0  0
   -2.8199    0.5175   -0.5250 H   0  0  0  0  0  0  0  0  0  0  0  0
   -4.9815   -0.8875   -1.3849 H   0  0  0  0  0  0  0  0  0  0  0  0
   -5.2108    0.7343   -2.8427 H   0  0  0  0  0  0  0  0  0  0  0  0
   -4.6379   -1.4576   -3.8390 H   0  0  0  0  0  0  0  0  0  0  0  0
   -4.6875   -3.1130   -2.4035 H   0  0  0  0  0  0  0  0  0  0  0  0
   -1.8714   -2.1363   -3.9789 H   0  0  0  0  0  0  0  0  0  0  0  0
   -1.2997   -1.8617   -1.6580 H   0  0  0  0  0  0  0  0  0  0  0  0
    0.6826   -1.5942   -2.9435 H   0  0  0  0  0  0  0  0  0  0  0  0
    2.5507   -2.4518   -4.2029 H   0  0  0  0  0  0  0  0  0  0  0  0
    6.9272    0.4668   -1.4266 H   0  0  0  0  0  0  0  0  0  0  0  0
    1.3927    1.2444    0.2097 H   0  0  0  0  0  0  0  0  0  0  0  0
    7.7294    2.4952   -0.8252 H   0  0  0  0  0  0  0  0  0  0  0  0
    9.0485    3.9156    0.6710 H   0  0  0  0  0  0  0  0  0  0  0  0
    8.0689    4.9179    4.0437 H   0  0  0  0  0  0  0  0  0  0  0  0
    6.0127    3.5913    3.6971 H   0  0  0  0  0  0  0  0  0  0  0  0
    4.6838    2.1435    2.2263 H   0  0  0  0  0  0  0  0  0  0  0  0
   -2.8018   -0.9539   -7.2016 H   0  0  0  0  0  0  0  0  0  0  0  0
   -3.7895    1.0451    2.8223 H   0  0  0  0  0  0  0  0  0  0  0  0
   -2.5564   -1.3284    4.3936 H   0  0  0  0  0  0  0  0  0  0  0  0
   -3.9186   -0.6848    5.9840 H   0  0  0  0  0  0  0  0  0  0  0  0
   -1.3710    3.0297    4.5268 H   0  0  0  0  0  0  0  0  0  0  0  0
  1  2  1  0
  2  3  1  0
  3  4  1  0
  3  5  1  0
  5  6  1  0
  6  7  1  0
  7  8  1  0
  8  9  1  0
  8 10  1  0
 10 11  1  0
 10 12  1  0
 12 13  1  0
 13 14  1  0
 14 15  1  0
 15 16  1  0
 16 17  2  0
 17 18  1  0
 18 19  1  0
 18 20  2  0
 20 21  1  0
 21 22  2  0
 21 23  1  0
 23 24  2  0
 24 25  1  0
 25 26  1  0
 26 27  2  0
 24 28  1  0
 28 29  2  0
 29 30  1  0
 30 31  2  0
 31 32  1  0
 31 33  1  0
 33 34  2  0
 12 35  1  0
 35 36  1  0
 35 37  2  0
  5 38  1  0
 38 39  1  0
 39 40  1  0
 40 41  1  0
 39 42  1  0
 42 43  1  0
 42 44  2  0
 40  2  1  0
 14  7  1  0
 27 16  1  0
 34 28  1  0
 26 20  1  0
  1 45  1  0
  2 46  1  6
  3 47  1  1
  4 48  1  0
  5 49  1  6
  7 50  1  1
  8 51  1  1
  9 52  1  0
 10 53  1  6
 11 54  1  0
 12 55  1  6
 14 56  1  6
 17 57  1  0
 19 58  1  0
 23 59  1  0
 27 60  1  0
 29 61  1  0
 30 62  1  0
 32 63  1  0
 33 64  1  0
 34 65  1  0
 36 66  1  0
 39 67  1  6
 40 68  1  1
 41 69  1  0
 43 70  1  0
M  END
>  <LIG_ID>  (175) 
174

>  <_smiles>  (175) 
O[C@@H]1[C@@H](O)[C@H](O[C@@H]2[C@@H](O)[C@H](O)[C@H](O[C@H]2OC2=CC(O)=C3C(=O)C=C(OC3=C2)C2=CC=C(O)C=C2)C(O)=O)O[C@@H]([C@H]1O)C(O)=O

>  <_name>  (175) 
Apigenin 7-O-diglucuronide

>  <_molecular_weight>  (175) 
622.485

>  <_formula>  (175) 
C27H26O17

>  <_logP>  (175) 
-1.9412999999999978

>  <_molecular_wt_calculated>  (175) 
622.4880000000013

>  <_havy_atom_count>  (175) 
44

>  <_hydrogen_acceptors>  (175) 
17

>  <_hydrogen_donors>  (175) 
9

>  <_rotatable_bonds>  (175) 
14

>  <_amide_bonds>  (175) 
0

>  <_ring_count>  (175) 
5

$$$$
Rhoifolin 4'-O-glucoside
     RDKit          3D

 92 97  0  0  0  0  0  0  0  0999 V2000
   -4.5528   -2.1593    0.6502 C   0  0  0  0  0  0  0  0  0  0  0  0
   -5.2995   -1.6684   -0.5909 C   0  0  0  0  0  0  0  0  0  0  0  0
   -4.3711   -0.9957   -1.4278 O   0  0  0  0  0  0  0  0  0  0  0  0
   -5.0011   -0.4144   -2.5615 C   0  0  0  0  0  0  0  0  0  0  0  0
   -5.9851    0.5391   -2.1754 O   0  0  0  0  0  0  0  0  0  0  0  0
   -5.4443    1.8415   -1.9927 C   0  0  0  0  0  0  0  0  0  0  0  0
   -6.5992    2.8635   -2.1158 C   0  0  0  0  0  0  0  0  0  0  0  0
   -6.1101    4.0621   -2.6673 O   0  0  0  0  0  0  0  0  0  0  0  0
   -7.2134    3.1304   -0.7299 C   0  0  0  0  0  0  0  0  0  0  0  0
   -8.2756    4.0448   -0.8259 O   0  0  0  0  0  0  0  0  0  0  0  0
   -6.1185    3.6909    0.2209 C   0  0  0  0  0  0  0  0  0  0  0  0
   -6.4261    3.3802    1.6926 C   0  0  0  0  0  0  0  0  0  0  0  0
   -5.4646    3.9825    2.5141 O   0  0  0  0  0  0  0  0  0  0  0  0
   -4.7954    3.2818   -0.1198 O   0  0  0  0  0  0  0  0  0  0  0  0
   -4.7528    1.9511   -0.6060 C   0  0  0  0  0  0  0  0  0  0  0  0
   -3.3899    1.5493   -0.7379 O   0  0  0  0  0  0  0  0  0  0  0  0
   -2.5224    1.2738    0.3300 C   0  0  0  0  0  0  0  0  0  0  0  0
   -1.2351    0.8222    0.0317 C   0  0  0  0  0  0  0  0  0  0  0  0
   -0.3312    0.5149    1.0518 C   0  0  0  0  0  0  0  0  0  0  0  0
   -0.7097    0.6611    2.4065 C   0  0  0  0  0  0  0  0  0  0  0  0
   -2.0105    1.1223    2.7126 C   0  0  0  0  0  0  0  0  0  0  0  0
   -2.4219    1.2814    4.0366 O   0  0  0  0  0  0  0  0  0  0  0  0
   -2.9039    1.4248    1.6749 C   0  0  0  0  0  0  0  0  0  0  0  0
    0.2427    0.3284    3.3905 C   0  0  0  0  0  0  0  0  0  0  0  0
   -0.0222    0.4221    4.6195 O   0  0  0  0  0  0  0  0  0  0  0  0
    1.5060   -0.1199    3.0026 C   0  0  0  0  0  0  0  0  0  0  0  0
    1.8106   -0.2295    1.6358 C   0  0  0  0  0  0  0  0  0  0  0  0
    0.8848    0.0839    0.7321 O   0  0  0  0  0  0  0  0  0  0  0  0
    3.1366   -0.7023    1.1640 C   0  0  0  0  0  0  0  0  0  0  0  0
    3.2430   -1.3220   -0.0929 C   0  0  0  0  0  0  0  0  0  0  0  0
    4.4808   -1.7680   -0.5636 C   0  0  0  0  0  0  0  0  0  0  0  0
    5.6379   -1.5963    0.2020 C   0  0  0  0  0  0  0  0  0  0  0  0
    6.8549   -2.0627   -0.3193 O   0  0  0  0  0  0  0  0  0  0  0  0
    8.1253   -1.9206    0.3175 C   0  0  0  0  0  0  0  0  0  0  0  0
    8.4533   -0.5460    0.4131 O   0  0  0  0  0  0  0  0  0  0  0  0
    9.5271   -0.3543    1.3248 C   0  0  0  0  0  0  0  0  0  0  0  0
    9.8641    1.1447    1.3739 C   0  0  0  0  0  0  0  0  0  0  0  0
   10.2058    1.6197    0.1014 O   0  0  0  0  0  0  0  0  0  0  0  0
   10.7495   -1.2876    1.0076 C   0  0  0  0  0  0  0  0  0  0  0  0
   11.9976   -0.6518    1.1527 O   0  0  0  0  0  0  0  0  0  0  0  0
   10.6113   -2.0016   -0.3618 C   0  0  0  0  0  0  0  0  0  0  0  0
   10.8747   -1.1268   -1.4339 O   0  0  0  0  0  0  0  0  0  0  0  0
    9.2166   -2.6771   -0.4898 C   0  0  0  0  0  0  0  0  0  0  0  0
    8.8604   -2.8541   -1.8409 O   0  0  0  0  0  0  0  0  0  0  0  0
    5.5414   -0.9664    1.4566 C   0  0  0  0  0  0  0  0  0  0  0  0
    4.3038   -0.5202    1.9299 C   0  0  0  0  0  0  0  0  0  0  0  0
   -5.6461   -1.5007   -3.4479 C   0  0  0  0  0  0  0  0  0  0  0  0
   -4.6487   -2.3343   -3.9841 O   0  0  0  0  0  0  0  0  0  0  0  0
   -6.6357   -2.3424   -2.6283 C   0  0  0  0  0  0  0  0  0  0  0  0
   -7.0849   -3.4242   -3.4035 O   0  0  0  0  0  0  0  0  0  0  0  0
   -5.9571   -2.8515   -1.3412 C   0  0  0  0  0  0  0  0  0  0  0  0
   -6.8856   -3.5207   -0.5228 O   0  0  0  0  0  0  0  0  0  0  0  0
   -3.7541   -2.8770    0.3647 H   0  0  0  0  0  0  0  0  0  0  0  0
   -4.0845   -1.2974    1.1707 H   0  0  0  0  0  0  0  0  0  0  0  0
   -5.2519   -2.6531    1.3578 H   0  0  0  0  0  0  0  0  0  0  0  0
   -6.0884   -0.9667   -0.2365 H   0  0  0  0  0  0  0  0  0  0  0  0
   -4.2033    0.0475   -3.1868 H   0  0  0  0  0  0  0  0  0  0  0  0
   -4.7134    2.0959   -2.7964 H   0  0  0  0  0  0  0  0  0  0  0  0
   -7.3821    2.4414   -2.7906 H   0  0  0  0  0  0  0  0  0  0  0  0
   -6.8911    4.5526   -3.0347 H   0  0  0  0  0  0  0  0  0  0  0  0
   -7.5965    2.1625   -0.3256 H   0  0  0  0  0  0  0  0  0  0  0  0
   -9.0366    3.5574   -1.2371 H   0  0  0  0  0  0  0  0  0  0  0  0
   -6.1329    4.7991    0.1191 H   0  0  0  0  0  0  0  0  0  0  0  0
   -6.4307    2.2807    1.8619 H   0  0  0  0  0  0  0  0  0  0  0  0
   -7.4327    3.7797    1.9498 H   0  0  0  0  0  0  0  0  0  0  0  0
   -5.6944    3.7224    3.4439 H   0  0  0  0  0  0  0  0  0  0  0  0
   -5.2580    1.2603    0.1054 H   0  0  0  0  0  0  0  0  0  0  0  0
   -0.9370    0.7027   -1.0028 H   0  0  0  0  0  0  0  0  0  0  0  0
   -3.3511    1.6116    4.2704 H   0  0  0  0  0  0  0  0  0  0  0  0
   -3.8938    1.7716    1.9296 H   0  0  0  0  0  0  0  0  0  0  0  0
    2.2235   -0.4019    3.7623 H   0  0  0  0  0  0  0  0  0  0  0  0
    2.3651   -1.4731   -0.7090 H   0  0  0  0  0  0  0  0  0  0  0  0
    4.5415   -2.2495   -1.5315 H   0  0  0  0  0  0  0  0  0  0  0  0
    8.0496   -2.3849    1.3305 H   0  0  0  0  0  0  0  0  0  0  0  0
    9.1685   -0.6028    2.3514 H   0  0  0  0  0  0  0  0  0  0  0  0
    8.9708    1.6981    1.7418 H   0  0  0  0  0  0  0  0  0  0  0  0
   10.6950    1.3287    2.0913 H   0  0  0  0  0  0  0  0  0  0  0  0
   10.4224    2.5813    0.2151 H   0  0  0  0  0  0  0  0  0  0  0  0
   10.7289   -2.0984    1.7702 H   0  0  0  0  0  0  0  0  0  0  0  0
   12.1312   -0.0463    0.3797 H   0  0  0  0  0  0  0  0  0  0  0  0
   11.3819   -2.8026   -0.4053 H   0  0  0  0  0  0  0  0  0  0  0  0
   10.1767   -0.4241   -1.4379 H   0  0  0  0  0  0  0  0  0  0  0  0
    9.2965   -3.6936   -0.0443 H   0  0  0  0  0  0  0  0  0  0  0  0
    8.5963   -1.9701   -2.2066 H   0  0  0  0  0  0  0  0  0  0  0  0
    6.4153   -0.8105    2.0735 H   0  0  0  0  0  0  0  0  0  0  0  0
    4.2725   -0.0121    2.8842 H   0  0  0  0  0  0  0  0  0  0  0  0
   -6.2085   -1.0094   -4.2769 H   0  0  0  0  0  0  0  0  0  0  0  0
   -4.2337   -1.8389   -4.7379 H   0  0  0  0  0  0  0  0  0  0  0  0
   -7.5011   -1.6904   -2.3592 H   0  0  0  0  0  0  0  0  0  0  0  0
   -7.9276   -3.7457   -2.9887 H   0  0  0  0  0  0  0  0  0  0  0  0
   -5.1634   -3.5785   -1.6239 H   0  0  0  0  0  0  0  0  0  0  0  0
   -7.5826   -2.8645   -0.2585 H   0  0  0  0  0  0  0  0  0  0  0  0
  1  2  1  0
  2  3  1  0
  3  4  1  0
  4  5  1  0
  5  6  1  0
  6  7  1  0
  7  8  1  0
  7  9  1  0
  9 10  1  0
  9 11  1  0
 11 12  1  0
 12 13  1  0
 11 14  1  0
 14 15  1  0
 15 16  1  0
 16 17  1  0
 17 18  2  0
 18 19  1  0
 19 20  2  0
 20 21  1  0
 21 22  1  0
 21 23  2  0
 20 24  1  0
 24 25  2  0
 24 26  1  0
 26 27  2  0
 27 28  1  0
 27 29  1  0
 29 30  2  0
 30 31  1  0
 31 32  2  0
 32 33  1  0
 33 34  1  0
 34 35  1  0
 35 36  1  0
 36 37  1  0
 37 38  1  0
 36 39  1  0
 39 40  1  0
 39 41  1  0
 41 42  1  0
 41 43  1  0
 43 44  1  0
 32 45  1  0
 45 46  2  0
  4 47  1  0
 47 48  1  0
 47 49  1  0
 49 50  1  0
 49 51  1  0
 51 52  1  0
 51  2  1  0
 15  6  1  0
 23 17  1  0
 46 29  1  0
 28 19  1  0
 43 34  1  0
  1 53  1  0
  1 54  1  0
  1 55  1  0
  2 56  1  0
  4 57  1  0
  6 58  1  0
  7 59  1  0
  8 60  1  0
  9 61  1  0
 10 62  1  0
 11 63  1  0
 12 64  1  0
 12 65  1  0
 13 66  1  0
 15 67  1  0
 18 68  1  0
 22 69  1  0
 23 70  1  0
 26 71  1  0
 30 72  1  0
 31 73  1  0
 34 74  1  0
 36 75  1  0
 37 76  1  0
 37 77  1  0
 38 78  1  0
 39 79  1  0
 40 80  1  0
 41 81  1  0
 42 82  1  0
 43 83  1  0
 44 84  1  0
 45 85  1  0
 46 86  1  0
 47 87  1  0
 48 88  1  0
 49 89  1  0
 50 90  1  0
 51 91  1  0
 52 92  1  0
M  END
>  <LIG_ID>  (176) 
175

>  <_smiles>  (176) 
CC1OC(OC2C(O)C(O)C(CO)OC2OC2=CC3=C(C(O)=C2)C(=O)C=C(O3)C2=CC=C(OC3OC(CO)C(O)C(O)C3O)C=C2)C(O)C(O)C1O

>  <_name>  (176) 
Rhoifolin 4'-O-glucoside

>  <_molecular_weight>  (176) 
740.659

>  <_formula>  (176) 
C33H40O19

>  <_logP>  (176) 
-3.6251999999999973

>  <_molecular_wt_calculated>  (176) 
740.6640000000018

>  <_havy_atom_count>  (176) 
52

>  <_hydrogen_acceptors>  (176) 
19

>  <_hydrogen_donors>  (176) 
11

>  <_rotatable_bonds>  (176) 
21

>  <_amide_bonds>  (176) 
0

>  <_ring_count>  (176) 
6

$$$$
Kaempferol
     RDKit          3D

 31 33  0  0  0  0  0  0  0  0999 V2000
    5.9587    0.0551    1.4136 O   0  0  0  0  0  0  0  0  0  0  0  0
    4.6288    0.0885    1.0004 C   0  0  0  0  0  0  0  0  0  0  0  0
    4.2859   -0.1934   -0.3283 C   0  0  0  0  0  0  0  0  0  0  0  0
    2.9478   -0.1555   -0.7323 C   0  0  0  0  0  0  0  0  0  0  0  0
    1.9366    0.1788    0.1872 C   0  0  0  0  0  0  0  0  0  0  0  0
    2.2875    0.4395    1.5224 C   0  0  0  0  0  0  0  0  0  0  0  0
    3.6265    0.4017    1.9232 C   0  0  0  0  0  0  0  0  0  0  0  0
    0.5100    0.2011   -0.2087 C   0  0  0  0  0  0  0  0  0  0  0  0
    0.0785    0.7739   -1.4208 C   0  0  0  0  0  0  0  0  0  0  0  0
    0.9955    1.3895   -2.2767 O   0  0  0  0  0  0  0  0  0  0  0  0
   -1.2885    0.7416   -1.7375 C   0  0  0  0  0  0  0  0  0  0  0  0
   -1.6853    1.2416   -2.8252 O   0  0  0  0  0  0  0  0  0  0  0  0
   -2.2000    0.1587   -0.8333 C   0  0  0  0  0  0  0  0  0  0  0  0
   -3.5933    0.0893   -1.0750 C   0  0  0  0  0  0  0  0  0  0  0  0
   -4.1445    0.5986   -2.2515 O   0  0  0  0  0  0  0  0  0  0  0  0
   -4.4364   -0.4990   -0.1206 C   0  0  0  0  0  0  0  0  0  0  0  0
   -3.9158   -1.0170    1.0674 C   0  0  0  0  0  0  0  0  0  0  0  0
   -4.7751   -1.5952    1.9992 O   0  0  0  0  0  0  0  0  0  0  0  0
   -2.5402   -0.9519    1.3115 C   0  0  0  0  0  0  0  0  0  0  0  0
   -1.6830   -0.3711    0.3723 C   0  0  0  0  0  0  0  0  0  0  0  0
   -0.3803   -0.3266    0.6265 O   0  0  0  0  0  0  0  0  0  0  0  0
    6.7077   -0.1700    0.7692 H   0  0  0  0  0  0  0  0  0  0  0  0
    5.0541   -0.4506   -1.0464 H   0  0  0  0  0  0  0  0  0  0  0  0
    2.7040   -0.4121   -1.7551 H   0  0  0  0  0  0  0  0  0  0  0  0
    1.5255    0.6841    2.2524 H   0  0  0  0  0  0  0  0  0  0  0  0
    3.8852    0.6146    2.9527 H   0  0  0  0  0  0  0  0  0  0  0  0
    0.7179    1.8190   -3.1510 H   0  0  0  0  0  0  0  0  0  0  0  0
   -5.1400    0.5551   -2.4362 H   0  0  0  0  0  0  0  0  0  0  0  0
   -5.5026   -0.5538   -0.3020 H   0  0  0  0  0  0  0  0  0  0  0  0
   -4.4300   -1.9803    2.8707 H   0  0  0  0  0  0  0  0  0  0  0  0
   -2.1349   -1.3542    2.2319 H   0  0  0  0  0  0  0  0  0  0  0  0
  1  2  1  0
  2  3  2  0
  3  4  1  0
  4  5  2  0
  5  6  1  0
  6  7  2  0
  5  8  1  0
  8  9  2  0
  9 10  1  0
  9 11  1  0
 11 12  2  0
 11 13  1  0
 13 14  2  0
 14 15  1  0
 14 16  1  0
 16 17  2  0
 17 18  1  0
 17 19  1  0
 19 20  2  0
 20 21  1  0
  7  2  1  0
 21  8  1  0
 20 13  1  0
  1 22  1  0
  3 23  1  0
  4 24  1  0
  6 25  1  0
  7 26  1  0
 10 27  1  0
 15 28  1  0
 16 29  1  0
 18 30  1  0
 19 31  1  0
M  END
>  <LIG_ID>  (177) 
176

>  <_smiles>  (177) 
OC1=CC=C(C=C1)C1=C(O)C(=O)C2=C(O)C=C(O)C=C2O1

>  <_name>  (177) 
Kaempferol

>  <_molecular_weight>  (177) 
286.236

>  <_formula>  (177) 
C15H10O6

>  <_logP>  (177) 
2.2824

>  <_molecular_wt_calculated>  (177) 
286.2389999999998

>  <_havy_atom_count>  (177) 
21

>  <_hydrogen_acceptors>  (177) 
6

>  <_hydrogen_donors>  (177) 
4

>  <_rotatable_bonds>  (177) 
5

>  <_amide_bonds>  (177) 
0

>  <_ring_count>  (177) 
3

$$$$
Quercetin
     RDKit          3D

 32 34  0  0  0  0  0  0  0  0999 V2000
   -4.3600   -3.1074    1.4286 O   0  0  0  0  0  0  0  0  0  0  0  0
   -3.7251   -1.9693    0.9361 C   0  0  0  0  0  0  0  0  0  0  0  0
   -4.4714   -0.8659    0.5070 C   0  0  0  0  0  0  0  0  0  0  0  0
   -3.8318    0.2795    0.0102 C   0  0  0  0  0  0  0  0  0  0  0  0
   -4.6028    1.3637   -0.4112 O   0  0  0  0  0  0  0  0  0  0  0  0
   -2.4181    0.3207   -0.0573 C   0  0  0  0  0  0  0  0  0  0  0  0
   -1.6749   -0.8002    0.3815 C   0  0  0  0  0  0  0  0  0  0  0  0
   -0.3476   -0.7909    0.3365 O   0  0  0  0  0  0  0  0  0  0  0  0
    0.3616    0.2423   -0.1087 C   0  0  0  0  0  0  0  0  0  0  0  0
   -0.2991    1.3897   -0.5887 C   0  0  0  0  0  0  0  0  0  0  0  0
    0.4323    2.4554   -1.1193 O   0  0  0  0  0  0  0  0  0  0  0  0
   -1.7017    1.4299   -0.5517 C   0  0  0  0  0  0  0  0  0  0  0  0
   -2.3039    2.4566   -0.9686 O   0  0  0  0  0  0  0  0  0  0  0  0
    1.8380    0.1319   -0.0968 C   0  0  0  0  0  0  0  0  0  0  0  0
    2.6493    1.1990    0.3299 C   0  0  0  0  0  0  0  0  0  0  0  0
    4.0452    1.0650    0.3558 C   0  0  0  0  0  0  0  0  0  0  0  0
    4.8480    2.1254    0.7726 O   0  0  0  0  0  0  0  0  0  0  0  0
    4.6383   -0.1422   -0.0339 C   0  0  0  0  0  0  0  0  0  0  0  0
    6.0259   -0.2704   -0.0104 O   0  0  0  0  0  0  0  0  0  0  0  0
    3.8334   -1.2145   -0.4398 C   0  0  0  0  0  0  0  0  0  0  0  0
    2.4427   -1.0810   -0.4636 C   0  0  0  0  0  0  0  0  0  0  0  0
   -2.3313   -1.9328    0.8718 C   0  0  0  0  0  0  0  0  0  0  0  0
   -5.3698   -3.1666    1.4889 H   0  0  0  0  0  0  0  0  0  0  0  0
   -5.5525   -0.8984    0.5589 H   0  0  0  0  0  0  0  0  0  0  0  0
   -5.6152    1.3467   -0.3681 H   0  0  0  0  0  0  0  0  0  0  0  0
   -0.0112    3.2910   -1.4812 H   0  0  0  0  0  0  0  0  0  0  0  0
    2.2025    2.1258    0.6667 H   0  0  0  0  0  0  0  0  0  0  0  0
    4.4491    3.0110    1.0615 H   0  0  0  0  0  0  0  0  0  0  0  0
    6.4833   -1.1319   -0.2852 H   0  0  0  0  0  0  0  0  0  0  0  0
    4.2848   -2.1528   -0.7360 H   0  0  0  0  0  0  0  0  0  0  0  0
    1.8378   -1.9218   -0.7808 H   0  0  0  0  0  0  0  0  0  0  0  0
   -1.7557   -2.7876    1.2056 H   0  0  0  0  0  0  0  0  0  0  0  0
  1  2  1  0
  2  3  2  0
  3  4  1  0
  4  5  1  0
  4  6  2  0
  6  7  1  0
  7  8  1  0
  8  9  1  0
  9 10  2  0
 10 11  1  0
 10 12  1  0
 12 13  2  0
  9 14  1  0
 14 15  2  0
 15 16  1  0
 16 17  1  0
 16 18  2  0
 18 19  1  0
 18 20  1  0
 20 21  2  0
  7 22  2  0
 22  2  1  0
 12  6  1  0
 21 14  1  0
  1 23  1  0
  3 24  1  0
  5 25  1  0
 11 26  1  0
 15 27  1  0
 17 28  1  0
 19 29  1  0
 20 30  1  0
 21 31  1  0
 22 32  1  0
M  END
>  <LIG_ID>  (178) 
177

>  <_smiles>  (178) 
OC1=CC(O)=C2C(OC(=C(O)C2=O)C2=CC(O)=C(O)C=C2)=C1

>  <_name>  (178) 
Quercetin

>  <_molecular_weight>  (178) 
302.236

>  <_formula>  (178) 
C15H10O7

>  <_logP>  (178) 
1.9879999999999998

>  <_molecular_wt_calculated>  (178) 
302.23799999999983

>  <_havy_atom_count>  (178) 
22

>  <_hydrogen_acceptors>  (178) 
7

>  <_hydrogen_donors>  (178) 
5

>  <_rotatable_bonds>  (178) 
6

>  <_amide_bonds>  (178) 
0

>  <_ring_count>  (178) 
3

$$$$
Quercetin 3-O-galactoside
     RDKit          3D

 53 56  0  0  0  0  0  0  0  0999 V2000
    2.0491    0.7384    2.4794 O   0  0  0  0  0  0  0  0  0  0  0  0
    2.9999    0.9065    1.4626 C   0  0  0  0  0  0  0  0  0  0  0  0
    2.7675   -0.1138    0.3390 C   0  0  1  0  0  0  0  0  0  0  0  0
    1.4750    0.0908   -0.2021 O   0  0  0  0  0  0  0  0  0  0  0  0
    1.1399   -0.9418   -1.1134 C   0  0  1  0  0  0  0  0  0  0  0  0
   -0.1950   -0.7426   -1.5733 O   0  0  0  0  0  0  0  0  0  0  0  0
   -1.2919   -0.7879   -0.7065 C   0  0  0  0  0  0  0  0  0  0  0  0
   -1.6815    0.3410    0.0371 C   0  0  0  0  0  0  0  0  0  0  0  0
   -2.6752    0.2397    0.9117 O   0  0  0  0  0  0  0  0  0  0  0  0
   -3.3735   -0.8745    1.0983 C   0  0  0  0  0  0  0  0  0  0  0  0
   -4.3823   -0.8762    2.0645 C   0  0  0  0  0  0  0  0  0  0  0  0
   -5.1322   -2.0256    2.3013 C   0  0  0  0  0  0  0  0  0  0  0  0
   -6.1200   -2.0112    3.2836 O   0  0  0  0  0  0  0  0  0  0  0  0
   -4.8939   -3.1774    1.5473 C   0  0  0  0  0  0  0  0  0  0  0  0
   -3.9135   -3.1962    0.5475 C   0  0  0  0  0  0  0  0  0  0  0  0
   -3.8174   -4.3673   -0.2101 O   0  0  0  0  0  0  0  0  0  0  0  0
   -3.1004   -2.0423    0.3378 C   0  0  0  0  0  0  0  0  0  0  0  0
   -2.0027   -1.9834   -0.5540 C   0  0  0  0  0  0  0  0  0  0  0  0
   -1.6146   -2.9952   -1.1944 O   0  0  0  0  0  0  0  0  0  0  0  0
   -0.9928    1.6438   -0.0943 C   0  0  0  0  0  0  0  0  0  0  0  0
   -0.6683    2.3736    1.0600 C   0  0  0  0  0  0  0  0  0  0  0  0
    0.0304    3.5856    0.9638 C   0  0  0  0  0  0  0  0  0  0  0  0
    0.3710    4.2907    2.1170 O   0  0  0  0  0  0  0  0  0  0  0  0
    0.3911    4.0849   -0.2990 C   0  0  0  0  0  0  0  0  0  0  0  0
    1.0898    5.2847   -0.4276 O   0  0  0  0  0  0  0  0  0  0  0  0
    0.0455    3.3725   -1.4514 C   0  0  0  0  0  0  0  0  0  0  0  0
   -0.6465    2.1630   -1.3535 C   0  0  0  0  0  0  0  0  0  0  0  0
    2.0883   -0.9156   -2.3298 C   0  0  2  0  0  0  0  0  0  0  0  0
    1.7722   -1.9467   -3.2322 O   0  0  0  0  0  0  0  0  0  0  0  0
    3.5575   -1.0168   -1.8667 C   0  0  1  0  0  0  0  0  0  0  0  0
    4.4268   -0.8070   -2.9498 O   0  0  0  0  0  0  0  0  0  0  0  0
    3.8365    0.0240   -0.7670 C   0  0  1  0  0  0  0  0  0  0  0  0
    3.7976    1.3233   -1.3059 O   0  0  0  0  0  0  0  0  0  0  0  0
    2.3218   -0.0655    2.9941 H   0  0  0  0  0  0  0  0  0  0  0  0
    2.9015    1.9382    1.0621 H   0  0  0  0  0  0  0  0  0  0  0  0
    4.0280    0.7977    1.8779 H   0  0  0  0  0  0  0  0  0  0  0  0
    2.8448   -1.1282    0.7978 H   0  0  0  0  0  0  0  0  0  0  0  0
    1.1909   -1.9368   -0.6115 H   0  0  0  0  0  0  0  0  0  0  0  0
   -4.5764    0.0190    2.6428 H   0  0  0  0  0  0  0  0  0  0  0  0
   -6.6849   -2.8294    3.4793 H   0  0  0  0  0  0  0  0  0  0  0  0
   -5.4964   -4.0611    1.7182 H   0  0  0  0  0  0  0  0  0  0  0  0
   -3.3735   -4.4337   -1.1133 H   0  0  0  0  0  0  0  0  0  0  0  0
   -0.9314    1.9866    2.0372 H   0  0  0  0  0  0  0  0  0  0  0  0
    0.1271    3.9492    3.0394 H   0  0  0  0  0  0  0  0  0  0  0  0
    1.3637    5.8366    0.3764 H   0  0  0  0  0  0  0  0  0  0  0  0
    0.3145    3.7579   -2.4266 H   0  0  0  0  0  0  0  0  0  0  0  0
   -0.9136    1.6366   -2.2609 H   0  0  0  0  0  0  0  0  0  0  0  0
    1.9487    0.0543   -2.8571 H   0  0  0  0  0  0  0  0  0  0  0  0
    1.8861   -2.8102   -2.7550 H   0  0  0  0  0  0  0  0  0  0  0  0
    3.7398   -2.0289   -1.4320 H   0  0  0  0  0  0  0  0  0  0  0  0
    4.4383   -1.6484   -3.4766 H   0  0  0  0  0  0  0  0  0  0  0  0
    4.8397   -0.1795   -0.3222 H   0  0  0  0  0  0  0  0  0  0  0  0
    4.6948    1.5046   -1.6901 H   0  0  0  0  0  0  0  0  0  0  0  0
  1  2  1  0
  2  3  1  0
  3  4  1  0
  4  5  1  0
  5  6  1  0
  6  7  1  0
  7  8  2  0
  8  9  1  0
  9 10  1  0
 10 11  2  0
 11 12  1  0
 12 13  1  0
 12 14  2  0
 14 15  1  0
 15 16  1  0
 15 17  2  0
 17 18  1  0
 18 19  2  0
  8 20  1  0
 20 21  2  0
 21 22  1  0
 22 23  1  0
 22 24  2  0
 24 25  1  0
 24 26  1  0
 26 27  2  0
  5 28  1  0
 28 29  1  0
 28 30  1  0
 30 31  1  0
 30 32  1  0
 32 33  1  0
 32  3  1  0
 18  7  1  0
 27 20  1  0
 17 10  1  0
  1 34  1  0
  2 35  1  0
  2 36  1  0
  3 37  1  1
  5 38  1  1
 11 39  1  0
 13 40  1  0
 14 41  1  0
 16 42  1  0
 21 43  1  0
 23 44  1  0
 25 45  1  0
 26 46  1  0
 27 47  1  0
 28 48  1  6
 29 49  1  0
 30 50  1  1
 31 51  1  0
 32 52  1  1
 33 53  1  0
M  END
>  <LIG_ID>  (179) 
178

>  <_smiles>  (179) 
OC[C@H]1O[C@@H](OC2=C(OC3=CC(O)=CC(O)=C3C2=O)C2=CC(O)=C(O)C=C2)[C@H](O)[C@@H](O)[C@H]1O

>  <_name>  (179) 
Quercetin 3-O-galactoside

>  <_molecular_weight>  (179) 
464.376

>  <_formula>  (179) 
C21H20O12

>  <_logP>  (179) 
-0.5389000000000006

>  <_molecular_wt_calculated>  (179) 
464.3789999999999

>  <_havy_atom_count>  (179) 
33

>  <_hydrogen_acceptors>  (179) 
12

>  <_hydrogen_donors>  (179) 
8

>  <_rotatable_bonds>  (179) 
12

>  <_amide_bonds>  (179) 
0

>  <_ring_count>  (179) 
4

$$$$
Quercetin 3-O-glucoside
     RDKit          3D

 53 56  0  0  0  0  0  0  0  0999 V2000
   -2.8309   -1.8650    3.3254 O   0  0  0  0  0  0  0  0  0  0  0  0
   -1.8690   -1.7683    2.3097 C   0  0  0  0  0  0  0  0  0  0  0  0
   -2.3466   -0.8506    1.1722 C   0  0  1  0  0  0  0  0  0  0  0  0
   -1.2588   -0.6674    0.2852 O   0  0  0  0  0  0  0  0  0  0  0  0
   -1.5717    0.2821   -0.7180 C   0  0  1  0  0  0  0  0  0  0  0  0
   -0.4099    0.5175   -1.5103 O   0  0  0  0  0  0  0  0  0  0  0  0
    0.7461    1.0967   -0.9766 C   0  0  0  0  0  0  0  0  0  0  0  0
    1.7137    0.3189   -0.3145 C   0  0  0  0  0  0  0  0  0  0  0  0
    2.7578    0.9131    0.2508 O   0  0  0  0  0  0  0  0  0  0  0  0
    2.9769    2.2215    0.1879 C   0  0  0  0  0  0  0  0  0  0  0  0
    4.0954    2.7433    0.8420 C   0  0  0  0  0  0  0  0  0  0  0  0
    4.3579    4.1106    0.8116 C   0  0  0  0  0  0  0  0  0  0  0  0
    5.4679    4.6123    1.4877 O   0  0  0  0  0  0  0  0  0  0  0  0
    3.5128    4.9639    0.0977 C   0  0  0  0  0  0  0  0  0  0  0  0
    2.4036    4.4664   -0.5975 C   0  0  0  0  0  0  0  0  0  0  0  0
    1.6762    5.3897   -1.3544 O   0  0  0  0  0  0  0  0  0  0  0  0
    2.0931    3.0754   -0.5236 C   0  0  0  0  0  0  0  0  0  0  0  0
    0.9360    2.4792   -1.0794 C   0  0  0  0  0  0  0  0  0  0  0  0
    0.0403    3.1654   -1.6373 O   0  0  0  0  0  0  0  0  0  0  0  0
    1.5925   -1.1509   -0.1921 C   0  0  0  0  0  0  0  0  0  0  0  0
    1.1892   -1.9450   -1.2803 C   0  0  0  0  0  0  0  0  0  0  0  0
    1.0380   -3.3285   -1.1343 C   0  0  0  0  0  0  0  0  0  0  0  0
    0.6212   -4.0834   -2.2301 O   0  0  0  0  0  0  0  0  0  0  0  0
    1.3060   -3.9341    0.1048 C   0  0  0  0  0  0  0  0  0  0  0  0
    1.1501   -5.3106    0.2589 O   0  0  0  0  0  0  0  0  0  0  0  0
    1.7329   -3.1485    1.1836 C   0  0  0  0  0  0  0  0  0  0  0  0
    1.8822   -1.7677    1.0344 C   0  0  0  0  0  0  0  0  0  0  0  0
   -2.6914   -0.2547   -1.6279 C   0  0  2  0  0  0  0  0  0  0  0  0
   -3.0241    0.7060   -2.5971 O   0  0  0  0  0  0  0  0  0  0  0  0
   -3.9356   -0.5766   -0.7837 C   0  0  1  0  0  0  0  0  0  0  0  0
   -4.8906   -1.2441   -1.5679 O   0  0  0  0  0  0  0  0  0  0  0  0
   -3.5494   -1.4679    0.4112 C   0  0  2  0  0  0  0  0  0  0  0  0
   -4.6567   -1.6564    1.2579 O   0  0  0  0  0  0  0  0  0  0  0  0
   -2.8019   -1.0087    3.8270 H   0  0  0  0  0  0  0  0  0  0  0  0
   -1.6599   -2.7848    1.9125 H   0  0  0  0  0  0  0  0  0  0  0  0
   -0.9143   -1.3769    2.7308 H   0  0  0  0  0  0  0  0  0  0  0  0
   -2.6395    0.1260    1.6249 H   0  0  0  0  0  0  0  0  0  0  0  0
   -1.8864    1.2510   -0.2629 H   0  0  0  0  0  0  0  0  0  0  0  0
    4.7583    2.0823    1.3871 H   0  0  0  0  0  0  0  0  0  0  0  0
    5.6888    5.6013    1.4836 H   0  0  0  0  0  0  0  0  0  0  0  0
    3.7351    6.0232    0.0565 H   0  0  0  0  0  0  0  0  0  0  0  0
    1.0465    5.1500   -2.1048 H   0  0  0  0  0  0  0  0  0  0  0  0
    0.9954   -1.4949   -2.2458 H   0  0  0  0  0  0  0  0  0  0  0  0
    0.4958   -5.0870   -2.1757 H   0  0  0  0  0  0  0  0  0  0  0  0
    1.3367   -5.7702    1.1425 H   0  0  0  0  0  0  0  0  0  0  0  0
    1.9441   -3.6070    2.1413 H   0  0  0  0  0  0  0  0  0  0  0  0
    2.1986   -1.1763    1.8850 H   0  0  0  0  0  0  0  0  0  0  0  0
   -2.3417   -1.1938   -2.1207 H   0  0  0  0  0  0  0  0  0  0  0  0
   -2.3477    0.6330   -3.3201 H   0  0  0  0  0  0  0  0  0  0  0  0
   -4.3649    0.3774   -0.3927 H   0  0  0  0  0  0  0  0  0  0  0  0
   -5.3492   -0.5533   -2.1139 H   0  0  0  0  0  0  0  0  0  0  0  0
   -3.2435   -2.4637    0.0189 H   0  0  0  0  0  0  0  0  0  0  0  0
   -4.9052   -0.7700    1.6304 H   0  0  0  0  0  0  0  0  0  0  0  0
  1  2  1  0
  2  3  1  0
  3  4  1  0
  4  5  1  0
  5  6  1  0
  6  7  1  0
  7  8  2  0
  8  9  1  0
  9 10  1  0
 10 11  2  0
 11 12  1  0
 12 13  1  0
 12 14  2  0
 14 15  1  0
 15 16  1  0
 15 17  2  0
 17 18  1  0
 18 19  2  0
  8 20  1  0
 20 21  2  0
 21 22  1  0
 22 23  1  0
 22 24  2  0
 24 25  1  0
 24 26  1  0
 26 27  2  0
  5 28  1  0
 28 29  1  0
 28 30  1  0
 30 31  1  0
 30 32  1  0
 32 33  1  0
 32  3  1  0
 18  7  1  0
 27 20  1  0
 17 10  1  0
  1 34  1  0
  2 35  1  0
  2 36  1  0
  3 37  1  1
  5 38  1  1
 11 39  1  0
 13 40  1  0
 14 41  1  0
 16 42  1  0
 21 43  1  0
 23 44  1  0
 25 45  1  0
 26 46  1  0
 27 47  1  0
 28 48  1  6
 29 49  1  0
 30 50  1  1
 31 51  1  0
 32 52  1  6
 33 53  1  0
M  END
>  <LIG_ID>  (180) 
179

>  <_smiles>  (180) 
OC[C@H]1O[C@@H](OC2=C(OC3=CC(O)=CC(O)=C3C2=O)C2=CC(O)=C(O)C=C2)[C@H](O)[C@@H](O)[C@@H]1O

>  <_name>  (180) 
Quercetin 3-O-glucoside

>  <_molecular_weight>  (180) 
464.376

>  <_formula>  (180) 
C21H20O12

>  <_logP>  (180) 
-0.5389000000000006

>  <_molecular_wt_calculated>  (180) 
464.3789999999999

>  <_havy_atom_count>  (180) 
33

>  <_hydrogen_acceptors>  (180) 
12

>  <_hydrogen_donors>  (180) 
8

>  <_rotatable_bonds>  (180) 
12

>  <_amide_bonds>  (180) 
0

>  <_ring_count>  (180) 
4

$$$$
Quercetin 3-O-xyloside
     RDKit          3D

 49 52  0  0  0  0  0  0  0  0999 V2000
    5.1632   -0.3908   -1.8623 O   0  0  0  0  0  0  0  0  0  0  0  0
    4.4686   -0.2788   -0.6449 C   0  0  2  0  0  0  0  0  0  0  0  0
    3.2325   -1.2056   -0.6227 C   0  0  0  0  0  0  0  0  0  0  0  0
    2.0838   -0.5128   -1.0689 O   0  0  0  0  0  0  0  0  0  0  0  0
    1.6606    0.4532   -0.1117 C   0  0  0  0  0  0  0  0  0  0  0  0
    0.8937   -0.1809    0.9133 O   0  0  0  0  0  0  0  0  0  0  0  0
   -0.3485   -0.7721    0.6579 C   0  0  0  0  0  0  0  0  0  0  0  0
   -1.4909    0.0001    0.3592 C   0  0  0  0  0  0  0  0  0  0  0  0
   -2.6319   -0.6067    0.0451 O   0  0  0  0  0  0  0  0  0  0  0  0
   -2.7760   -1.9271    0.0310 C   0  0  0  0  0  0  0  0  0  0  0  0
   -4.0166   -2.4731   -0.3110 C   0  0  0  0  0  0  0  0  0  0  0  0
   -4.2004   -3.8568   -0.3231 C   0  0  0  0  0  0  0  0  0  0  0  0
   -5.4448   -4.3809   -0.6660 O   0  0  0  0  0  0  0  0  0  0  0  0
   -3.1369   -4.7040    0.0092 C   0  0  0  0  0  0  0  0  0  0  0  0
   -1.8836   -4.1760    0.3530 C   0  0  0  0  0  0  0  0  0  0  0  0
   -0.8414   -5.0454    0.6776 O   0  0  0  0  0  0  0  0  0  0  0  0
   -1.6926   -2.7735    0.3652 C   0  0  0  0  0  0  0  0  0  0  0  0
   -0.4619   -2.1662    0.6862 C   0  0  0  0  0  0  0  0  0  0  0  0
    0.5486   -2.8588    0.9853 O   0  0  0  0  0  0  0  0  0  0  0  0
   -1.4746    1.4797    0.3892 C   0  0  0  0  0  0  0  0  0  0  0  0
   -2.1416    2.2009   -0.6121 C   0  0  0  0  0  0  0  0  0  0  0  0
   -2.1478    3.6015   -0.6081 C   0  0  0  0  0  0  0  0  0  0  0  0
   -2.8206    4.2535   -1.6436 O   0  0  0  0  0  0  0  0  0  0  0  0
   -1.4831    4.2981    0.4290 C   0  0  0  0  0  0  0  0  0  0  0  0
   -1.4408    5.6921    0.4961 O   0  0  0  0  0  0  0  0  0  0  0  0
   -0.8390    3.5749    1.4388 C   0  0  0  0  0  0  0  0  0  0  0  0
   -0.8393    2.1793    1.4268 C   0  0  0  0  0  0  0  0  0  0  0  0
    2.8260    1.2589    0.5270 C   0  0  2  0  0  0  0  0  0  0  0  0
    2.4276    2.5931    0.7156 O   0  0  0  0  0  0  0  0  0  0  0  0
    4.0681    1.1951   -0.3829 C   0  0  1  0  0  0  0  0  0  0  0  0
    5.1444    1.9164    0.1639 O   0  0  0  0  0  0  0  0  0  0  0  0
    4.5240   -0.1803   -2.5929 H   0  0  0  0  0  0  0  0  0  0  0  0
    5.1512   -0.6234    0.1625 H   0  0  0  0  0  0  0  0  0  0  0  0
    3.4042   -2.0799   -1.2860 H   0  0  0  0  0  0  0  0  0  0  0  0
    3.0743   -1.6161    0.4014 H   0  0  0  0  0  0  0  0  0  0  0  0
    1.0129    1.1724   -0.6575 H   0  0  0  0  0  0  0  0  0  0  0  0
   -4.8418   -1.8194   -0.5660 H   0  0  0  0  0  0  0  0  0  0  0  0
   -5.6121   -5.3802   -0.6844 H   0  0  0  0  0  0  0  0  0  0  0  0
   -3.2842   -5.7767   -0.0009 H   0  0  0  0  0  0  0  0  0  0  0  0
   -0.9650   -6.0512    0.6723 H   0  0  0  0  0  0  0  0  0  0  0  0
   -2.6486    1.6739   -1.4118 H   0  0  0  0  0  0  0  0  0  0  0  0
   -2.8884    5.2573   -1.7288 H   0  0  0  0  0  0  0  0  0  0  0  0
   -1.8685    6.3033   -0.1844 H   0  0  0  0  0  0  0  0  0  0  0  0
   -0.3370    4.0998    2.2418 H   0  0  0  0  0  0  0  0  0  0  0  0
   -0.3524    1.6486    2.2350 H   0  0  0  0  0  0  0  0  0  0  0  0
    3.0793    0.7972    1.5120 H   0  0  0  0  0  0  0  0  0  0  0  0
    3.0128    2.9733    1.4216 H   0  0  0  0  0  0  0  0  0  0  0  0
    3.7974    1.6763   -1.3493 H   0  0  0  0  0  0  0  0  0  0  0  0
    5.3371    1.5376    1.0614 H   0  0  0  0  0  0  0  0  0  0  0  0
  1  2  1  0
  2  3  1  0
  3  4  1  0
  4  5  1  0
  5  6  1  0
  6  7  1  0
  7  8  2  0
  8  9  1  0
  9 10  1  0
 10 11  2  0
 11 12  1  0
 12 13  1  0
 12 14  2  0
 14 15  1  0
 15 16  1  0
 15 17  2  0
 17 18  1  0
 18 19  2  0
  8 20  1  0
 20 21  2  0
 21 22  1  0
 22 23  1  0
 22 24  2  0
 24 25  1  0
 24 26  1  0
 26 27  2  0
  5 28  1  0
 28 29  1  0
 28 30  1  0
 30 31  1  0
 30  2  1  0
 18  7  1  0
 27 20  1  0
 17 10  1  0
  1 32  1  0
  2 33  1  1
  3 34  1  0
  3 35  1  0
  5 36  1  0
 11 37  1  0
 13 38  1  0
 14 39  1  0
 16 40  1  0
 21 41  1  0
 23 42  1  0
 25 43  1  0
 26 44  1  0
 27 45  1  0
 28 46  1  1
 29 47  1  0
 30 48  1  6
 31 49  1  0
M  END
>  <LIG_ID>  (181) 
180

>  <_smiles>  (181) 
O[C@@H]1COC(OC2=C(OC3=CC(O)=CC(O)=C3C2=O)C2=CC(O)=C(O)C=C2)[C@H](O)[C@H]1O

>  <_name>  (181) 
Quercetin 3-O-xyloside

>  <_molecular_weight>  (181) 
434.35

>  <_formula>  (181) 
C20H18O11

>  <_logP>  (181) 
0.1001999999999994

>  <_molecular_wt_calculated>  (181) 
434.3529999999999

>  <_havy_atom_count>  (181) 
31

>  <_hydrogen_acceptors>  (181) 
11

>  <_hydrogen_donors>  (181) 
7

>  <_rotatable_bonds>  (181) 
10

>  <_amide_bonds>  (181) 
0

>  <_ring_count>  (181) 
4

$$$$
Quercetin 3-O-rhamnoside
     RDKit          3D

 52 55  0  0  0  0  0  0  0  0999 V2000
    2.9367    3.2899   -1.0957 C   0  0  0  0  0  0  0  0  0  0  0  0
    3.0396    1.7659   -1.0124 C   0  0  2  0  0  0  0  0  0  0  0  0
    1.7740    1.2076   -1.3590 O   0  0  0  0  0  0  0  0  0  0  0  0
    1.4076    0.0485   -0.6243 C   0  0  1  0  0  0  0  0  0  0  0  0
    0.3794   -0.6331   -1.3449 O   0  0  0  0  0  0  0  0  0  0  0  0
   -0.7747   -1.1463   -0.7358 C   0  0  0  0  0  0  0  0  0  0  0  0
   -1.6760   -0.3255   -0.0275 C   0  0  0  0  0  0  0  0  0  0  0  0
   -2.7236   -0.8703    0.5785 O   0  0  0  0  0  0  0  0  0  0  0  0
   -2.9960   -2.1693    0.5416 C   0  0  0  0  0  0  0  0  0  0  0  0
   -4.1438   -2.6277    1.1924 C   0  0  0  0  0  0  0  0  0  0  0  0
   -4.4861   -3.9768    1.1555 C   0  0  0  0  0  0  0  0  0  0  0  0
   -5.6465   -4.4090    1.7940 O   0  0  0  0  0  0  0  0  0  0  0  0
   -3.6612   -4.8838    0.4860 C   0  0  0  0  0  0  0  0  0  0  0  0
   -2.4838   -4.4615   -0.1438 C   0  0  0  0  0  0  0  0  0  0  0  0
   -1.6876   -5.4633   -0.7073 O   0  0  0  0  0  0  0  0  0  0  0  0
   -2.1517   -3.0727   -0.1568 C   0  0  0  0  0  0  0  0  0  0  0  0
   -1.0418   -2.5157   -0.8369 C   0  0  0  0  0  0  0  0  0  0  0  0
   -0.2802   -3.2197   -1.5498 O   0  0  0  0  0  0  0  0  0  0  0  0
   -1.5129    1.1418    0.0535 C   0  0  0  0  0  0  0  0  0  0  0  0
   -1.2287    1.9042   -1.0922 C   0  0  0  0  0  0  0  0  0  0  0  0
   -1.0357    3.2867   -0.9969 C   0  0  0  0  0  0  0  0  0  0  0  0
   -0.7254    4.0082   -2.1490 O   0  0  0  0  0  0  0  0  0  0  0  0
   -1.1531    3.9241    0.2497 C   0  0  0  0  0  0  0  0  0  0  0  0
   -0.9562    5.3001    0.3528 O   0  0  0  0  0  0  0  0  0  0  0  0
   -1.4708    3.1703    1.3878 C   0  0  0  0  0  0  0  0  0  0  0  0
   -1.6561    1.7890    1.2894 C   0  0  0  0  0  0  0  0  0  0  0  0
    2.5879   -0.9130   -0.4004 C   0  0  1  0  0  0  0  0  0  0  0  0
    3.0743   -1.3373   -1.6486 O   0  0  0  0  0  0  0  0  0  0  0  0
    3.7171   -0.2187    0.4088 C   0  0  2  0  0  0  0  0  0  0  0  0
    3.7017   -0.6578    1.7439 O   0  0  0  0  0  0  0  0  0  0  0  0
    3.6013    1.3236    0.3633 C   0  0  2  0  0  0  0  0  0  0  0  0
    2.7670    1.7981    1.3936 O   0  0  0  0  0  0  0  0  0  0  0  0
    2.1825    3.6693   -0.3735 H   0  0  0  0  0  0  0  0  0  0  0  0
    2.6234    3.5894   -2.1185 H   0  0  0  0  0  0  0  0  0  0  0  0
    3.9200    3.7588   -0.8783 H   0  0  0  0  0  0  0  0  0  0  0  0
    3.7700    1.4499   -1.7904 H   0  0  0  0  0  0  0  0  0  0  0  0
    1.0155    0.3608    0.3680 H   0  0  0  0  0  0  0  0  0  0  0  0
   -4.7821   -1.9272    1.7171 H   0  0  0  0  0  0  0  0  0  0  0  0
   -5.9232   -5.3838    1.7879 H   0  0  0  0  0  0  0  0  0  0  0  0
   -3.9205   -5.9354    0.4787 H   0  0  0  0  0  0  0  0  0  0  0  0
   -0.7147   -5.3614   -0.9515 H   0  0  0  0  0  0  0  0  0  0  0  0
   -1.1475    1.4255   -2.0604 H   0  0  0  0  0  0  0  0  0  0  0  0
   -0.5694    5.0089   -2.1315 H   0  0  0  0  0  0  0  0  0  0  0  0
   -1.0346    5.7823    1.2407 H   0  0  0  0  0  0  0  0  0  0  0  0
   -1.5685    3.6539    2.3514 H   0  0  0  0  0  0  0  0  0  0  0  0
   -1.8875    1.2208    2.1822 H   0  0  0  0  0  0  0  0  0  0  0  0
    2.2042   -1.7968    0.1630 H   0  0  0  0  0  0  0  0  0  0  0  0
    3.6044   -2.1606   -1.4842 H   0  0  0  0  0  0  0  0  0  0  0  0
    4.7019   -0.4876   -0.0433 H   0  0  0  0  0  0  0  0  0  0  0  0
    4.0768   -1.5774    1.7489 H   0  0  0  0  0  0  0  0  0  0  0  0
    4.6234    1.7583    0.4798 H   0  0  0  0  0  0  0  0  0  0  0  0
    3.3313    1.8956    2.2046 H   0  0  0  0  0  0  0  0  0  0  0  0
  1  2  1  0
  2  3  1  0
  3  4  1  0
  4  5  1  0
  5  6  1  0
  6  7  2  0
  7  8  1  0
  8  9  1  0
  9 10  2  0
 10 11  1  0
 11 12  1  0
 11 13  2  0
 13 14  1  0
 14 15  1  0
 14 16  2  0
 16 17  1  0
 17 18  2  0
  7 19  1  0
 19 20  2  0
 20 21  1  0
 21 22  1  0
 21 23  2  0
 23 24  1  0
 23 25  1  0
 25 26  2  0
  4 27  1  0
 27 28  1  0
 27 29  1  0
 29 30  1  0
 29 31  1  0
 31 32  1  0
 31  2  1  0
 17  6  1  0
 26 19  1  0
 16  9  1  0
  1 33  1  0
  1 34  1  0
  1 35  1  0
  2 36  1  6
  4 37  1  1
 10 38  1  0
 12 39  1  0
 13 40  1  0
 15 41  1  0
 20 42  1  0
 22 43  1  0
 24 44  1  0
 25 45  1  0
 26 46  1  0
 27 47  1  1
 28 48  1  0
 29 49  1  6
 30 50  1  0
 31 51  1  1
 32 52  1  0
M  END
>  <LIG_ID>  (182) 
181

>  <_smiles>  (182) 
C[C@@H]1O[C@@H](OC2=C(OC3=CC(O)=CC(O)=C3C2=O)C2=CC(O)=C(O)C=C2)[C@@H](O)[C@H](O)[C@@H]1O

>  <_name>  (182) 
Quercetin 3-O-rhamnoside

>  <_molecular_weight>  (182) 
448.377

>  <_formula>  (182) 
C21H20O11

>  <_logP>  (182) 
0.48869999999999997

>  <_molecular_wt_calculated>  (182) 
448.3799999999999

>  <_havy_atom_count>  (182) 
32

>  <_hydrogen_acceptors>  (182) 
11

>  <_hydrogen_donors>  (182) 
7

>  <_rotatable_bonds>  (182) 
11

>  <_amide_bonds>  (182) 
0

>  <_ring_count>  (182) 
4

$$$$
Quercetin 3-O-rutinoside
     RDKit          3D

 73 77  0  0  0  0  0  0  0  0999 V2000
    6.3184    0.1187   -0.0503 C   0  0  0  0  0  0  0  0  0  0  0  0
    4.9235    0.4306   -0.5927 C   0  0  2  0  0  0  0  0  0  0  0  0
    4.0590   -0.6389   -0.2582 O   0  0  0  0  0  0  0  0  0  0  0  0
    2.6913   -0.2833   -0.4400 C   0  0  1  0  0  0  0  0  0  0  0  0
    2.2262    0.4637    0.6706 O   0  0  0  0  0  0  0  0  0  0  0  0
    2.0842   -0.3650    1.8078 C   0  0  0  0  0  0  0  0  0  0  0  0
    1.3578    0.4184    2.9201 C   0  0  1  0  0  0  0  0  0  0  0  0
    0.2411    1.1515    2.4295 O   0  0  0  0  0  0  0  0  0  0  0  0
   -0.8263    0.3338    1.9626 C   0  0  1  0  0  0  0  0  0  0  0  0
   -0.5528   -0.0918    0.6252 O   0  0  0  0  0  0  0  0  0  0  0  0
   -1.5442   -0.5116   -0.2677 C   0  0  0  0  0  0  0  0  0  0  0  0
   -2.5167    0.3764   -0.7730 C   0  0  0  0  0  0  0  0  0  0  0  0
   -3.4859   -0.0869   -1.5570 O   0  0  0  0  0  0  0  0  0  0  0  0
   -3.5717   -1.3567   -1.9376 C   0  0  0  0  0  0  0  0  0  0  0  0
   -4.6278   -1.7501   -2.7646 C   0  0  0  0  0  0  0  0  0  0  0  0
   -4.7343   -3.0743   -3.1928 C   0  0  0  0  0  0  0  0  0  0  0  0
   -5.7939   -3.4459   -4.0175 O   0  0  0  0  0  0  0  0  0  0  0  0
   -3.7784   -4.0152   -2.7927 C   0  0  0  0  0  0  0  0  0  0  0  0
   -2.7126   -3.6412   -1.9609 C   0  0  0  0  0  0  0  0  0  0  0  0
   -1.7758   -4.6015   -1.5765 O   0  0  0  0  0  0  0  0  0  0  0  0
   -2.6022   -2.3000   -1.5226 C   0  0  0  0  0  0  0  0  0  0  0  0
   -1.5708   -1.8490   -0.6752 C   0  0  0  0  0  0  0  0  0  0  0  0
   -0.6746   -2.6347   -0.2628 O   0  0  0  0  0  0  0  0  0  0  0  0
   -2.4929    1.8265   -0.4786 C   0  0  0  0  0  0  0  0  0  0  0  0
   -3.6952    2.4999   -0.2111 C   0  0  0  0  0  0  0  0  0  0  0  0
   -3.6964    3.8756    0.0622 C   0  0  0  0  0  0  0  0  0  0  0  0
   -4.8935    4.5331    0.3410 O   0  0  0  0  0  0  0  0  0  0  0  0
   -2.4864    4.5899    0.0542 C   0  0  0  0  0  0  0  0  0  0  0  0
   -2.4541    5.9575    0.3246 O   0  0  0  0  0  0  0  0  0  0  0  0
   -1.2902    3.9253   -0.2327 C   0  0  0  0  0  0  0  0  0  0  0  0
   -1.2911    2.5555   -0.5054 C   0  0  0  0  0  0  0  0  0  0  0  0
   -1.1378   -0.8815    2.8784 C   0  0  2  0  0  0  0  0  0  0  0  0
   -2.5269   -1.0567    2.9952 O   0  0  0  0  0  0  0  0  0  0  0  0
   -0.5322   -0.6573    4.2678 C   0  0  1  0  0  0  0  0  0  0  0  0
   -0.7997   -1.7577    5.0996 O   0  0  0  0  0  0  0  0  0  0  0  0
    0.9886   -0.4763    4.1421 C   0  0  2  0  0  0  0  0  0  0  0  0
    1.4725    0.0970    5.3300 O   0  0  0  0  0  0  0  0  0  0  0  0
    2.4376    0.5317   -1.7433 C   0  0  2  0  0  0  0  0  0  0  0  0
    1.1772    0.2462   -2.3002 O   0  0  0  0  0  0  0  0  0  0  0  0
    3.5727    0.3283   -2.7700 C   0  0  2  0  0  0  0  0  0  0  0  0
    3.5452   -0.9695   -3.3174 O   0  0  0  0  0  0  0  0  0  0  0  0
    4.9534    0.6392   -2.1327 C   0  0  1  0  0  0  0  0  0  0  0  0
    5.3014    1.9708   -2.4182 O   0  0  0  0  0  0  0  0  0  0  0  0
    7.0182    0.9516   -0.2731 H   0  0  0  0  0  0  0  0  0  0  0  0
    6.7105   -0.8184   -0.5003 H   0  0  0  0  0  0  0  0  0  0  0  0
    6.2700   -0.0116    1.0517 H   0  0  0  0  0  0  0  0  0  0  0  0
    4.5859    1.3694   -0.0918 H   0  0  0  0  0  0  0  0  0  0  0  0
    2.1217   -1.2358   -0.5422 H   0  0  0  0  0  0  0  0  0  0  0  0
    1.5059   -1.2877    1.5772 H   0  0  0  0  0  0  0  0  0  0  0  0
    3.0874   -0.6691    2.1826 H   0  0  0  0  0  0  0  0  0  0  0  0
    2.0921    1.1793    3.2660 H   0  0  0  0  0  0  0  0  0  0  0  0
   -1.7235    0.9886    1.9562 H   0  0  0  0  0  0  0  0  0  0  0  0
   -5.3667   -1.0229   -3.0785 H   0  0  0  0  0  0  0  0  0  0  0  0
   -5.9005   -4.3984   -4.3466 H   0  0  0  0  0  0  0  0  0  0  0  0
   -3.8644   -5.0412   -3.1281 H   0  0  0  0  0  0  0  0  0  0  0  0
   -1.8437   -5.5650   -1.8830 H   0  0  0  0  0  0  0  0  0  0  0  0
   -4.6309    1.9537   -0.2000 H   0  0  0  0  0  0  0  0  0  0  0  0
   -5.7793    4.0409    0.3530 H   0  0  0  0  0  0  0  0  0  0  0  0
   -3.2930    6.4838    0.5371 H   0  0  0  0  0  0  0  0  0  0  0  0
   -0.3570    4.4739   -0.2504 H   0  0  0  0  0  0  0  0  0  0  0  0
   -0.3546    2.0708   -0.7488 H   0  0  0  0  0  0  0  0  0  0  0  0
   -0.6838   -1.8068    2.4514 H   0  0  0  0  0  0  0  0  0  0  0  0
   -2.8373   -1.4635    2.1447 H   0  0  0  0  0  0  0  0  0  0  0  0
   -0.9704    0.2707    4.7097 H   0  0  0  0  0  0  0  0  0  0  0  0
   -1.7191   -1.6362    5.4540 H   0  0  0  0  0  0  0  0  0  0  0  0
    1.4441   -1.4888    4.0194 H   0  0  0  0  0  0  0  0  0  0  0  0
    2.4512   -0.0702    5.3508 H   0  0  0  0  0  0  0  0  0  0  0  0
    2.4369    1.6136   -1.4806 H   0  0  0  0  0  0  0  0  0  0  0  0
    1.1587   -0.7157   -2.5429 H   0  0  0  0  0  0  0  0  0  0  0  0
    3.3992    1.0343   -3.6121 H   0  0  0  0  0  0  0  0  0  0  0  0
    3.7643   -1.6152   -2.5972 H   0  0  0  0  0  0  0  0  0  0  0  0
    5.7036   -0.0450   -2.5979 H   0  0  0  0  0  0  0  0  0  0  0  0
    6.2887    2.0367   -2.3399 H   0  0  0  0  0  0  0  0  0  0  0  0
  1  2  1  0
  2  3  1  0
  3  4  1  0
  4  5  1  0
  5  6  1  0
  6  7  1  0
  7  8  1  0
  8  9  1  0
  9 10  1  0
 10 11  1  0
 11 12  2  0
 12 13  1  0
 13 14  1  0
 14 15  2  0
 15 16  1  0
 16 17  1  0
 16 18  2  0
 18 19  1  0
 19 20  1  0
 19 21  2  0
 21 22  1  0
 22 23  2  0
 12 24  1  0
 24 25  2  0
 25 26  1  0
 26 27  1  0
 26 28  2  0
 28 29  1  0
 28 30  1  0
 30 31  2  0
  9 32  1  0
 32 33  1  0
 32 34  1  0
 34 35  1  0
 34 36  1  0
 36 37  1  0
  4 38  1  0
 38 39  1  0
 38 40  1  0
 40 41  1  0
 40 42  1  0
 42 43  1  0
 42  2  1  0
 36  7  1  0
 22 11  1  0
 31 24  1  0
 21 14  1  0
  1 44  1  0
  1 45  1  0
  1 46  1  0
  2 47  1  1
  4 48  1  6
  6 49  1  0
  6 50  1  0
  7 51  1  1
  9 52  1  6
 15 53  1  0
 17 54  1  0
 18 55  1  0
 20 56  1  0
 25 57  1  0
 27 58  1  0
 29 59  1  0
 30 60  1  0
 31 61  1  0
 32 62  1  6
 33 63  1  0
 34 64  1  1
 35 65  1  0
 36 66  1  6
 37 67  1  0
 38 68  1  1
 39 69  1  0
 40 70  1  6
 41 71  1  0
 42 72  1  6
 43 73  1  0
M  END
>  <LIG_ID>  (183) 
182

>  <_smiles>  (183) 
C[C@@H]1O[C@@H](OC[C@H]2O[C@@H](OC3=C(OC4=CC(O)=CC(O)=C4C3=O)C3=CC(O)=C(O)C=C3)[C@H](O)[C@@H](O)[C@@H]2O)[C@H](O)[C@H](O)[C@H]1O

>  <_name>  (183) 
Quercetin 3-O-rutinoside

>  <_molecular_weight>  (183) 
610.518

>  <_formula>  (183) 
C27H30O16

>  <_logP>  (183) 
-1.6871000000000014

>  <_molecular_wt_calculated>  (183) 
610.5210000000015

>  <_havy_atom_count>  (183) 
43

>  <_hydrogen_acceptors>  (183) 
16

>  <_hydrogen_donors>  (183) 
10

>  <_rotatable_bonds>  (183) 
17

>  <_amide_bonds>  (183) 
0

>  <_ring_count>  (183) 
5

$$$$
Quercetin 3-O-sophoroside
     RDKit          3D

 74 78  0  0  0  0  0  0  0  0999 V2000
    2.6149   -0.7406    4.5502 O   0  0  0  0  0  0  0  0  0  0  0  0
    2.0793   -0.1012    3.4227 C   0  0  0  0  0  0  0  0  0  0  0  0
    3.1246    0.0195    2.3011 C   0  0  1  0  0  0  0  0  0  0  0  0
    2.4528    0.4360    1.1258 O   0  0  0  0  0  0  0  0  0  0  0  0
    3.3230    0.3955    0.0063 C   0  0  1  0  0  0  0  0  0  0  0  0
    2.5924    0.6958   -1.1683 O   0  0  0  0  0  0  0  0  0  0  0  0
    1.6328   -0.3104   -1.4640 C   0  0  2  0  0  0  0  0  0  0  0  0
    1.7080   -0.6376   -2.9750 C   0  0  1  0  0  0  0  0  0  0  0  0
    1.2210   -1.9353   -3.2142 O   0  0  0  0  0  0  0  0  0  0  0  0
    0.8745    0.3660   -3.7963 C   0  0  2  0  0  0  0  0  0  0  0  0
    1.4669    1.6397   -3.7358 O   0  0  0  0  0  0  0  0  0  0  0  0
   -0.5861    0.4544   -3.2473 C   0  0  1  0  0  0  0  0  0  0  0  0
   -1.5968   -0.1368   -4.2420 C   0  0  0  0  0  0  0  0  0  0  0  0
   -1.6067    0.5921   -5.4404 O   0  0  0  0  0  0  0  0  0  0  0  0
   -0.7390   -0.2355   -2.0177 O   0  0  0  0  0  0  0  0  0  0  0  0
    0.2228    0.2006   -1.0758 C   0  0  1  0  0  0  0  0  0  0  0  0
   -0.1158   -0.3126    0.2102 O   0  0  0  0  0  0  0  0  0  0  0  0
   -1.3281   -0.0093    0.8350 C   0  0  0  0  0  0  0  0  0  0  0  0
   -2.4859   -0.7715    0.5853 C   0  0  0  0  0  0  0  0  0  0  0  0
   -3.6358   -0.4319    1.1601 O   0  0  0  0  0  0  0  0  0  0  0  0
   -3.7562    0.5933    1.9970 C   0  0  0  0  0  0  0  0  0  0  0  0
   -5.0057    0.8706    2.5592 C   0  0  0  0  0  0  0  0  0  0  0  0
   -5.1606    1.9381    3.4451 C   0  0  0  0  0  0  0  0  0  0  0  0
   -6.4142    2.1972    3.9949 O   0  0  0  0  0  0  0  0  0  0  0  0
   -4.0592    2.7369    3.7736 C   0  0  0  0  0  0  0  0  0  0  0  0
   -2.7972    2.4767    3.2192 C   0  0  0  0  0  0  0  0  0  0  0  0
   -1.7174    3.2901    3.5652 O   0  0  0  0  0  0  0  0  0  0  0  0
   -2.6357    1.3961    2.3196 C   0  0  0  0  0  0  0  0  0  0  0  0
   -1.4042    1.0759    1.7137 C   0  0  0  0  0  0  0  0  0  0  0  0
   -0.3678    1.7573    1.9410 O   0  0  0  0  0  0  0  0  0  0  0  0
   -2.4723   -1.9329   -0.3309 C   0  0  0  0  0  0  0  0  0  0  0  0
   -3.5032   -2.0828   -1.2715 C   0  0  0  0  0  0  0  0  0  0  0  0
   -3.4821   -3.1435   -2.1885 C   0  0  0  0  0  0  0  0  0  0  0  0
   -4.4977   -3.2710   -3.1349 O   0  0  0  0  0  0  0  0  0  0  0  0
   -2.4311   -4.0754   -2.1539 C   0  0  0  0  0  0  0  0  0  0  0  0
   -2.3793   -5.1382   -3.0551 O   0  0  0  0  0  0  0  0  0  0  0  0
   -1.4167   -3.9421   -1.2010 C   0  0  0  0  0  0  0  0  0  0  0  0
   -1.4373   -2.8830   -0.2906 C   0  0  0  0  0  0  0  0  0  0  0  0
    4.4318    1.4506    0.1750 C   0  0  2  0  0  0  0  0  0  0  0  0
    5.3200    1.3924   -0.9118 O   0  0  0  0  0  0  0  0  0  0  0  0
    5.2056    1.1843    1.4783 C   0  0  1  0  0  0  0  0  0  0  0  0
    6.0909    2.2435    1.7371 O   0  0  0  0  0  0  0  0  0  0  0  0
    4.2334    1.0395    2.6598 C   0  0  2  0  0  0  0  0  0  0  0  0
    4.9534    0.6055    3.7864 O   0  0  0  0  0  0  0  0  0  0  0  0
    2.6676   -1.7076    4.3312 H   0  0  0  0  0  0  0  0  0  0  0  0
    1.1955   -0.6704    3.0524 H   0  0  0  0  0  0  0  0  0  0  0  0
    1.7206    0.9080    3.7175 H   0  0  0  0  0  0  0  0  0  0  0  0
    3.5731   -0.9913    2.1518 H   0  0  0  0  0  0  0  0  0  0  0  0
    3.8071   -0.6071   -0.1003 H   0  0  0  0  0  0  0  0  0  0  0  0
    1.8271   -1.2683   -0.9203 H   0  0  0  0  0  0  0  0  0  0  0  0
    2.7696   -0.5814   -3.3148 H   0  0  0  0  0  0  0  0  0  0  0  0
    1.9371   -2.5677   -2.9436 H   0  0  0  0  0  0  0  0  0  0  0  0
    0.8711    0.0250   -4.8591 H   0  0  0  0  0  0  0  0  0  0  0  0
    2.2732    1.6130   -4.3148 H   0  0  0  0  0  0  0  0  0  0  0  0
   -0.8717    1.5219   -3.0973 H   0  0  0  0  0  0  0  0  0  0  0  0
   -2.6153   -0.1396   -3.7896 H   0  0  0  0  0  0  0  0  0  0  0  0
   -1.3303   -1.1926   -4.4637 H   0  0  0  0  0  0  0  0  0  0  0  0
   -2.0982    1.4349   -5.2565 H   0  0  0  0  0  0  0  0  0  0  0  0
    0.2240    1.3152   -1.0091 H   0  0  0  0  0  0  0  0  0  0  0  0
   -5.8593    0.2531    2.3075 H   0  0  0  0  0  0  0  0  0  0  0  0
   -6.5613    2.9637    4.6412 H   0  0  0  0  0  0  0  0  0  0  0  0
   -4.1841    3.5635    4.4619 H   0  0  0  0  0  0  0  0  0  0  0  0
   -1.8194    4.0665    4.2084 H   0  0  0  0  0  0  0  0  0  0  0  0
   -4.3082   -1.3588   -1.3125 H   0  0  0  0  0  0  0  0  0  0  0  0
   -5.2641   -2.6099   -3.1833 H   0  0  0  0  0  0  0  0  0  0  0  0
   -3.0892   -5.2774   -3.7641 H   0  0  0  0  0  0  0  0  0  0  0  0
   -0.6091   -4.6623   -1.1662 H   0  0  0  0  0  0  0  0  0  0  0  0
   -0.6474   -2.8094    0.4459 H   0  0  0  0  0  0  0  0  0  0  0  0
    3.9665    2.4637    0.2377 H   0  0  0  0  0  0  0  0  0  0  0  0
    4.8993    1.8969   -1.6561 H   0  0  0  0  0  0  0  0  0  0  0  0
    5.7768    0.2298    1.3752 H   0  0  0  0  0  0  0  0  0  0  0  0
    6.8818    2.1079    1.1524 H   0  0  0  0  0  0  0  0  0  0  0  0
    3.7635    2.0363    2.8481 H   0  0  0  0  0  0  0  0  0  0  0  0
    4.5877    1.0883    4.5730 H   0  0  0  0  0  0  0  0  0  0  0  0
  1  2  1  0
  2  3  1  0
  3  4  1  0
  4  5  1  0
  5  6  1  0
  6  7  1  0
  7  8  1  0
  8  9  1  0
  8 10  1  0
 10 11  1  0
 10 12  1  0
 12 13  1  0
 13 14  1  0
 12 15  1  0
 15 16  1  0
 16 17  1  0
 17 18  1  0
 18 19  2  0
 19 20  1  0
 20 21  1  0
 21 22  2  0
 22 23  1  0
 23 24  1  0
 23 25  2  0
 25 26  1  0
 26 27  1  0
 26 28  2  0
 28 29  1  0
 29 30  2  0
 19 31  1  0
 31 32  2  0
 32 33  1  0
 33 34  1  0
 33 35  2  0
 35 36  1  0
 35 37  1  0
 37 38  2  0
  5 39  1  0
 39 40  1  0
 39 41  1  0
 41 42  1  0
 41 43  1  0
 43 44  1  0
 43  3  1  0
 16  7  1  0
 29 18  1  0
 38 31  1  0
 28 21  1  0
  1 45  1  0
  2 46  1  0
  2 47  1  0
  3 48  1  6
  5 49  1  6
  7 50  1  1
  8 51  1  6
  9 52  1  0
 10 53  1  6
 11 54  1  0
 12 55  1  1
 13 56  1  0
 13 57  1  0
 14 58  1  0
 16 59  1  1
 22 60  1  0
 24 61  1  0
 25 62  1  0
 27 63  1  0
 32 64  1  0
 34 65  1  0
 36 66  1  0
 37 67  1  0
 38 68  1  0
 39 69  1  1
 40 70  1  0
 41 71  1  6
 42 72  1  0
 43 73  1  1
 44 74  1  0
M  END
>  <LIG_ID>  (184) 
183

>  <_smiles>  (184) 
OC[C@H]1O[C@@H](O[C@@H]2[C@@H](O)[C@H](O)[C@@H](CO)O[C@H]2OC2=C(OC3=CC(O)=CC(O)=C3C2=O)C2=CC(O)=C(O)C=C2)[C@H](O)[C@@H](O)[C@@H]1O

>  <_name>  (184) 
Quercetin 3-O-sophoroside

>  <_molecular_weight>  (184) 
626.517

>  <_formula>  (184) 
C27H30O17

>  <_logP>  (184) 
-2.7147

>  <_molecular_wt_calculated>  (184) 
626.5200000000015

>  <_havy_atom_count>  (184) 
44

>  <_hydrogen_acceptors>  (184) 
17

>  <_hydrogen_donors>  (184) 
11

>  <_rotatable_bonds>  (184) 
18

>  <_amide_bonds>  (184) 
0

>  <_ring_count>  (184) 
5

$$$$
Quercetin 3-O-arabinoside
     RDKit          3D

 49 52  0  0  0  0  0  0  0  0999 V2000
    5.3794    0.3267   -1.0651 O   0  0  0  0  0  0  0  0  0  0  0  0
    4.0327    0.3773   -0.6681 C   0  0  1  0  0  0  0  0  0  0  0  0
    3.5222   -1.0363   -0.3275 C   0  0  0  0  0  0  0  0  0  0  0  0
    2.1427   -1.0895    0.0201 O   0  0  0  0  0  0  0  0  0  0  0  0
    1.6271    0.1114    0.5884 C   0  0  1  0  0  0  0  0  0  0  0  0
    0.5134   -0.2166    1.4181 O   0  0  0  0  0  0  0  0  0  0  0  0
   -0.6567   -0.7904    0.9067 C   0  0  0  0  0  0  0  0  0  0  0  0
   -1.5391   -0.0688    0.0751 C   0  0  0  0  0  0  0  0  0  0  0  0
   -2.5952   -0.6807   -0.4529 O   0  0  0  0  0  0  0  0  0  0  0  0
   -2.8993   -1.9507   -0.2097 C   0  0  0  0  0  0  0  0  0  0  0  0
   -4.0328   -2.5066   -0.8100 C   0  0  0  0  0  0  0  0  0  0  0  0
   -4.3826   -3.8380   -0.5617 C   0  0  0  0  0  0  0  0  0  0  0  0
   -5.5114   -4.3975   -1.1564 O   0  0  0  0  0  0  0  0  0  0  0  0
   -3.5958   -4.6165    0.2902 C   0  0  0  0  0  0  0  0  0  0  0  0
   -2.4533   -4.0781    0.9006 C   0  0  0  0  0  0  0  0  0  0  0  0
   -1.6867   -4.8819    1.7453 O   0  0  0  0  0  0  0  0  0  0  0  0
   -2.0935   -2.7318    0.6520 C   0  0  0  0  0  0  0  0  0  0  0  0
   -0.9543   -2.1220    1.2149 C   0  0  0  0  0  0  0  0  0  0  0  0
   -0.1839   -2.7615    1.9819 O   0  0  0  0  0  0  0  0  0  0  0  0
   -1.3411    1.3644   -0.2311 C   0  0  0  0  0  0  0  0  0  0  0  0
   -1.5391    1.8286   -1.5408 C   0  0  0  0  0  0  0  0  0  0  0  0
   -1.3569    3.1807   -1.8529 C   0  0  0  0  0  0  0  0  0  0  0  0
   -1.5468    3.6038   -3.1680 O   0  0  0  0  0  0  0  0  0  0  0  0
   -0.9871    4.0871   -0.8448 C   0  0  0  0  0  0  0  0  0  0  0  0
   -0.8000    5.4344   -1.1497 O   0  0  0  0  0  0  0  0  0  0  0  0
   -0.8111    3.6311    0.4683 C   0  0  0  0  0  0  0  0  0  0  0  0
   -0.9951    2.2811    0.7760 C   0  0  0  0  0  0  0  0  0  0  0  0
    2.6645    0.8784    1.4311 C   0  0  2  0  0  0  0  0  0  0  0  0
    2.0593    2.0033    2.0141 O   0  0  0  0  0  0  0  0  0  0  0  0
    3.8606    1.3133    0.5521 C   0  0  1  0  0  0  0  0  0  0  0  0
    5.0222    1.3197    1.3451 O   0  0  0  0  0  0  0  0  0  0  0  0
    5.3945   -0.0495   -1.9839 H   0  0  0  0  0  0  0  0  0  0  0  0
    3.4164    0.7777   -1.5080 H   0  0  0  0  0  0  0  0  0  0  0  0
    4.1223   -1.4602    0.5072 H   0  0  0  0  0  0  0  0  0  0  0  0
    3.6790   -1.6945   -1.2081 H   0  0  0  0  0  0  0  0  0  0  0  0
    1.2836    0.7734   -0.2361 H   0  0  0  0  0  0  0  0  0  0  0  0
   -4.6434   -1.9009   -1.4683 H   0  0  0  0  0  0  0  0  0  0  0  0
   -6.1035   -3.8603   -1.7790 H   0  0  0  0  0  0  0  0  0  0  0  0
   -3.8740   -5.6461    0.4776 H   0  0  0  0  0  0  0  0  0  0  0  0
   -1.9333   -5.8471    1.9311 H   0  0  0  0  0  0  0  0  0  0  0  0
   -1.8194    1.1370   -2.3265 H   0  0  0  0  0  0  0  0  0  0  0  0
   -1.4271    4.5709   -3.4447 H   0  0  0  0  0  0  0  0  0  0  0  0
   -0.5338    6.1070   -0.4400 H   0  0  0  0  0  0  0  0  0  0  0  0
   -0.5363    4.3239    1.2535 H   0  0  0  0  0  0  0  0  0  0  0  0
   -0.8767    1.9556    1.8017 H   0  0  0  0  0  0  0  0  0  0  0  0
    3.0154    0.1871    2.2344 H   0  0  0  0  0  0  0  0  0  0  0  0
    2.6722    2.3178    2.7291 H   0  0  0  0  0  0  0  0  0  0  0  0
    3.6620    2.3425    0.1657 H   0  0  0  0  0  0  0  0  0  0  0  0
    5.6397    1.9913    0.9530 H   0  0  0  0  0  0  0  0  0  0  0  0
  1  2  1  0
  2  3  1  0
  3  4  1  0
  4  5  1  0
  5  6  1  0
  6  7  1  0
  7  8  2  0
  8  9  1  0
  9 10  1  0
 10 11  2  0
 11 12  1  0
 12 13  1  0
 12 14  2  0
 14 15  1  0
 15 16  1  0
 15 17  2  0
 17 18  1  0
 18 19  2  0
  8 20  1  0
 20 21  2  0
 21 22  1  0
 22 23  1  0
 22 24  2  0
 24 25  1  0
 24 26  1  0
 26 27  2  0
  5 28  1  0
 28 29  1  0
 28 30  1  0
 30 31  1  0
 30  2  1  0
 18  7  1  0
 27 20  1  0
 17 10  1  0
  1 32  1  0
  2 33  1  6
  3 34  1  0
  3 35  1  0
  5 36  1  6
 11 37  1  0
 13 38  1  0
 14 39  1  0
 16 40  1  0
 21 41  1  0
 23 42  1  0
 25 43  1  0
 26 44  1  0
 27 45  1  0
 28 46  1  1
 29 47  1  0
 30 48  1  6
 31 49  1  0
M  END
>  <LIG_ID>  (185) 
184

>  <_smiles>  (185) 
O[C@H]1CO[C@@H](OC2=C(OC3=CC(O)=CC(O)=C3C2=O)C2=CC(O)=C(O)C=C2)[C@H](O)[C@H]1O

>  <_name>  (185) 
Quercetin 3-O-arabinoside

>  <_molecular_weight>  (185) 
434.35

>  <_formula>  (185) 
C20H18O11

>  <_logP>  (185) 
0.1001999999999994

>  <_molecular_wt_calculated>  (185) 
434.3529999999999

>  <_havy_atom_count>  (185) 
31

>  <_hydrogen_acceptors>  (185) 
11

>  <_hydrogen_donors>  (185) 
7

>  <_rotatable_bonds>  (185) 
10

>  <_amide_bonds>  (185) 
0

>  <_ring_count>  (185) 
4

$$$$
Quercetin 3-O-xylosyl-glucuronide
     RDKit          3D

 69 73  0  0  0  0  0  0  0  0999 V2000
    7.1293    0.0376    1.4483 C   0  0  1  0  0  0  0  0  0  0  0  0
    8.1792    0.3574    0.3732 C   0  0  0  0  0  0  0  0  0  0  0  0
    9.1017   -0.6917    0.2500 O   0  0  0  0  0  0  0  0  0  0  0  0
    6.1854    1.0775    1.5294 O   0  0  0  0  0  0  0  0  0  0  0  0
    4.9756    0.5139    1.9931 C   0  0  1  0  0  0  0  0  0  0  0  0
    3.9134    0.9685    1.1557 O   0  0  0  0  0  0  0  0  0  0  0  0
    2.5606    0.8243    1.4839 C   0  0  0  0  0  0  0  0  0  0  0  0
    2.2169    0.3136    2.5856 O   0  0  0  0  0  0  0  0  0  0  0  0
    1.5162    1.3294    0.5344 C   0  0  1  0  0  0  0  0  0  0  0  0
    0.4266    0.4264    0.5161 O   0  0  0  0  0  0  0  0  0  0  0  0
   -0.4267    0.6856   -0.5902 C   0  0  1  0  0  0  0  0  0  0  0  0
   -1.6099   -0.0937   -0.4026 O   0  0  0  0  0  0  0  0  0  0  0  0
   -2.6388   -0.3686   -1.3299 C   0  0  0  0  0  0  0  0  0  0  0  0
   -3.7875   -1.0298   -0.8555 C   0  0  0  0  0  0  0  0  0  0  0  0
   -4.7628   -1.3604   -1.6912 O   0  0  0  0  0  0  0  0  0  0  0  0
   -4.7330   -1.0998   -2.9900 C   0  0  0  0  0  0  0  0  0  0  0  0
   -5.8354   -1.4635   -3.7673 C   0  0  0  0  0  0  0  0  0  0  0  0
   -5.8585   -1.1865   -5.1344 C   0  0  0  0  0  0  0  0  0  0  0  0
   -6.9652   -1.5259   -5.9097 O   0  0  0  0  0  0  0  0  0  0  0  0
   -4.7606   -0.5723   -5.7340 C   0  0  0  0  0  0  0  0  0  0  0  0
   -3.6240   -0.2352   -4.9887 C   0  0  0  0  0  0  0  0  0  0  0  0
   -2.5407    0.2799   -5.7070 O   0  0  0  0  0  0  0  0  0  0  0  0
   -3.6151   -0.4555   -3.5769 C   0  0  0  0  0  0  0  0  0  0  0  0
   -2.5733   -0.0482   -2.7069 C   0  0  0  0  0  0  0  0  0  0  0  0
   -1.6046    0.6194   -3.1460 O   0  0  0  0  0  0  0  0  0  0  0  0
   -3.9534   -1.3778    0.5737 C   0  0  0  0  0  0  0  0  0  0  0  0
   -3.6851   -0.4423    1.5871 C   0  0  0  0  0  0  0  0  0  0  0  0
   -3.8600   -0.7730    2.9364 C   0  0  0  0  0  0  0  0  0  0  0  0
   -3.5663    0.2037    3.8902 O   0  0  0  0  0  0  0  0  0  0  0  0
   -4.3268   -2.0634    3.2822 C   0  0  0  0  0  0  0  0  0  0  0  0
   -4.5172   -2.4680    4.6049 O   0  0  0  0  0  0  0  0  0  0  0  0
   -4.6174   -2.9831    2.2682 C   0  0  0  0  0  0  0  0  0  0  0  0
   -4.4407   -2.6434    0.9256 C   0  0  0  0  0  0  0  0  0  0  0  0
   -0.8014    2.1969   -0.7109 C   0  0  2  0  0  0  0  0  0  0  0  0
   -0.1074    2.7617   -1.7950 O   0  0  0  0  0  0  0  0  0  0  0  0
   -0.4481    2.9563    0.5859 C   0  0  1  0  0  0  0  0  0  0  0  0
   -1.2598    2.4984    1.6387 O   0  0  0  0  0  0  0  0  0  0  0  0
    1.0364    2.7430    0.9579 C   0  0  2  0  0  0  0  0  0  0  0  0
    1.8206    3.7209    0.3231 O   0  0  0  0  0  0  0  0  0  0  0  0
    5.0751   -1.0182    1.9554 C   0  0  2  0  0  0  0  0  0  0  0  0
    5.1601   -1.5196    3.2651 O   0  0  0  0  0  0  0  0  0  0  0  0
    6.3689   -1.2650    1.2102 C   0  0  1  0  0  0  0  0  0  0  0  0
    6.1271   -1.5091   -0.1573 O   0  0  0  0  0  0  0  0  0  0  0  0
    7.6536   -0.0302    2.4295 H   0  0  0  0  0  0  0  0  0  0  0  0
    8.7077    1.3015    0.6377 H   0  0  0  0  0  0  0  0  0  0  0  0
    7.6880    0.5226   -0.6088 H   0  0  0  0  0  0  0  0  0  0  0  0
    9.6934   -0.6443    1.0458 H   0  0  0  0  0  0  0  0  0  0  0  0
    4.8000    0.8758    3.0314 H   0  0  0  0  0  0  0  0  0  0  0  0
    1.9898    1.3764   -0.4758 H   0  0  0  0  0  0  0  0  0  0  0  0
    0.0951    0.3253   -1.5040 H   0  0  0  0  0  0  0  0  0  0  0  0
   -6.6840   -1.9494   -3.3012 H   0  0  0  0  0  0  0  0  0  0  0  0
   -7.7780   -1.9759   -5.5049 H   0  0  0  0  0  0  0  0  0  0  0  0
   -4.7754   -0.3848   -6.8008 H   0  0  0  0  0  0  0  0  0  0  0  0
   -1.5836    0.2731   -5.3880 H   0  0  0  0  0  0  0  0  0  0  0  0
   -3.3591    0.5580    1.3320 H   0  0  0  0  0  0  0  0  0  0  0  0
   -3.6676    0.0691    4.8858 H   0  0  0  0  0  0  0  0  0  0  0  0
   -4.3284   -1.8838    5.4066 H   0  0  0  0  0  0  0  0  0  0  0  0
   -4.9824   -3.9699    2.5237 H   0  0  0  0  0  0  0  0  0  0  0  0
   -4.6712   -3.3747    0.1604 H   0  0  0  0  0  0  0  0  0  0  0  0
   -1.8973    2.2966   -0.8932 H   0  0  0  0  0  0  0  0  0  0  0  0
   -0.5611    3.6172   -2.0147 H   0  0  0  0  0  0  0  0  0  0  0  0
   -0.6299    4.0475    0.4391 H   0  0  0  0  0  0  0  0  0  0  0  0
   -2.1606    2.8930    1.5011 H   0  0  0  0  0  0  0  0  0  0  0  0
    1.1247    2.8719    2.0639 H   0  0  0  0  0  0  0  0  0  0  0  0
    2.7042    3.7177    0.7760 H   0  0  0  0  0  0  0  0  0  0  0  0
    4.2054   -1.4762    1.4268 H   0  0  0  0  0  0  0  0  0  0  0  0
    5.0132   -2.4997    3.2039 H   0  0  0  0  0  0  0  0  0  0  0  0
    6.9291   -2.1288    1.6315 H   0  0  0  0  0  0  0  0  0  0  0  0
    5.6011   -0.7489   -0.5217 H   0  0  0  0  0  0  0  0  0  0  0  0
  1  2  1  0
  2  3  1  0
  1  4  1  0
  4  5  1  0
  5  6  1  0
  6  7  1  0
  7  8  2  0
  7  9  1  0
  9 10  1  0
 10 11  1  0
 11 12  1  0
 12 13  1  0
 13 14  2  0
 14 15  1  0
 15 16  1  0
 16 17  2  0
 17 18  1  0
 18 19  1  0
 18 20  2  0
 20 21  1  0
 21 22  1  0
 21 23  2  0
 23 24  1  0
 24 25  2  0
 14 26  1  0
 26 27  2  0
 27 28  1  0
 28 29  1  0
 28 30  2  0
 30 31  1  0
 30 32  1  0
 32 33  2  0
 11 34  1  0
 34 35  1  0
 34 36  1  0
 36 37  1  0
 36 38  1  0
 38 39  1  0
  5 40  1  0
 40 41  1  0
 40 42  1  0
 42 43  1  0
 42  1  1  0
 38  9  1  0
 24 13  1  0
 33 26  1  0
 23 16  1  0
  1 44  1  1
  2 45  1  0
  2 46  1  0
  3 47  1  0
  5 48  1  1
  9 49  1  6
 11 50  1  6
 17 51  1  0
 19 52  1  0
 20 53  1  0
 22 54  1  0
 27 55  1  0
 29 56  1  0
 31 57  1  0
 32 58  1  0
 33 59  1  0
 34 60  1  6
 35 61  1  0
 36 62  1  6
 37 63  1  0
 38 64  1  1
 39 65  1  0
 40 66  1  6
 41 67  1  0
 42 68  1  1
 43 69  1  0
M  END
>  <LIG_ID>  (186) 
185

>  <_smiles>  (186) 
[H][C@]1(CO)O[C@@]([H])(OC(=O)[C@@]2([H])O[C@@]([H])(OC3=C(OC4=CC(O)=CC(O)=C4C3=O)C3=CC(O)=C(O)C=C3)[C@]([H])(O)[C@@]([H])(O)[C@]2([H])O)[C@]([H])(O)[C@@]1([H])O

>  <_name>  (186) 
Quercetin 3-O-xylosyl-glucuronide

>  <_molecular_weight>  (186) 
610.474

>  <_formula>  (186) 
C26H26O17

>  <_logP>  (186) 
-2.549000000000001

>  <_molecular_wt_calculated>  (186) 
610.4770000000013

>  <_havy_atom_count>  (186) 
43

>  <_hydrogen_acceptors>  (186) 
17

>  <_hydrogen_donors>  (186) 
10

>  <_rotatable_bonds>  (186) 
16

>  <_amide_bonds>  (186) 
0

>  <_ring_count>  (186) 
5

$$$$
Isorhamnetin 3-O-glucoside 7-O-rhamnoside
     RDKit          3D

 76 80  0  0  0  0  0  0  0  0999 V2000
    5.5996   -0.4466   -1.3700 C   0  0  2  0  0  0  0  0  0  0  0  0
    4.9995   -0.6772   -2.7579 C   0  0  0  0  0  0  0  0  0  0  0  0
    5.1109    0.7936   -0.8804 O   0  0  0  0  0  0  0  0  0  0  0  0
    5.5287    1.0346    0.4563 C   0  0  1  0  0  0  0  0  0  0  0  0
    5.0445    0.0246    1.3482 O   0  0  0  0  0  0  0  0  0  0  0  0
    3.6904   -0.2542    1.5910 C   0  0  0  0  0  0  0  0  0  0  0  0
    3.3787   -1.3161    2.4444 C   0  0  0  0  0  0  0  0  0  0  0  0
    2.0466   -1.6546    2.7214 C   0  0  0  0  0  0  0  0  0  0  0  0
    1.7768   -2.7242    3.5761 O   0  0  0  0  0  0  0  0  0  0  0  0
    0.9974   -0.9118    2.1324 C   0  0  0  0  0  0  0  0  0  0  0  0
   -0.3661   -1.1977    2.3499 C   0  0  0  0  0  0  0  0  0  0  0  0
   -0.7235   -2.1515    3.0936 O   0  0  0  0  0  0  0  0  0  0  0  0
   -1.3439   -0.4196    1.7217 C   0  0  0  0  0  0  0  0  0  0  0  0
   -2.6967   -0.7363    1.8842 O   0  0  0  0  0  0  0  0  0  0  0  0
   -3.3745   -1.5993    0.9727 C   0  0  2  0  0  0  0  0  0  0  0  0
   -3.4054   -0.9760   -0.3030 O   0  0  0  0  0  0  0  0  0  0  0  0
   -4.2576   -1.6764   -1.1848 C   0  0  2  0  0  0  0  0  0  0  0  0
   -3.9750   -1.2128   -2.6168 C   0  0  0  0  0  0  0  0  0  0  0  0
   -2.6482   -1.5090   -2.9546 O   0  0  0  0  0  0  0  0  0  0  0  0
   -5.7352   -1.4103   -0.7955 C   0  0  1  0  0  0  0  0  0  0  0  0
   -6.5637   -2.4550   -1.2446 O   0  0  0  0  0  0  0  0  0  0  0  0
   -5.8925   -1.1835    0.7316 C   0  0  2  0  0  0  0  0  0  0  0  0
   -5.8245    0.1946    1.0000 O   0  0  0  0  0  0  0  0  0  0  0  0
   -4.7946   -1.9148    1.5328 C   0  0  1  0  0  0  0  0  0  0  0  0
   -5.0351   -3.2984    1.4869 O   0  0  0  0  0  0  0  0  0  0  0  0
   -0.9414    0.6555    0.9078 C   0  0  0  0  0  0  0  0  0  0  0  0
    0.3522    0.8887    0.7102 O   0  0  0  0  0  0  0  0  0  0  0  0
    1.3151    0.1668    1.2737 C   0  0  0  0  0  0  0  0  0  0  0  0
    2.6491    0.4888    1.0092 C   0  0  0  0  0  0  0  0  0  0  0  0
   -1.9249    1.5309    0.2413 C   0  0  0  0  0  0  0  0  0  0  0  0
   -2.9827    2.1080    0.9633 C   0  0  0  0  0  0  0  0  0  0  0  0
   -3.9294    2.9245    0.3141 C   0  0  0  0  0  0  0  0  0  0  0  0
   -4.9903    3.5325    1.0034 O   0  0  0  0  0  0  0  0  0  0  0  0
   -5.1628    3.4909    2.4165 C   0  0  0  0  0  0  0  0  0  0  0  0
   -3.8139    3.1463   -1.0656 C   0  0  0  0  0  0  0  0  0  0  0  0
   -4.7592    3.9361   -1.7178 O   0  0  0  0  0  0  0  0  0  0  0  0
   -2.7497    2.5831   -1.7821 C   0  0  0  0  0  0  0  0  0  0  0  0
   -1.8035    1.7908   -1.1302 C   0  0  0  0  0  0  0  0  0  0  0  0
    7.0631    1.1398    0.5481 C   0  0  2  0  0  0  0  0  0  0  0  0
    7.5035    2.2671   -0.1665 O   0  0  0  0  0  0  0  0  0  0  0  0
    7.7063   -0.1345   -0.0287 C   0  0  2  0  0  0  0  0  0  0  0  0
    9.1096   -0.0332   -0.0457 O   0  0  0  0  0  0  0  0  0  0  0  0
    7.1455   -0.4441   -1.4289 C   0  0  1  0  0  0  0  0  0  0  0  0
    7.6198   -1.7021   -1.8393 O   0  0  0  0  0  0  0  0  0  0  0  0
    5.2513   -1.2872   -0.7268 H   0  0  0  0  0  0  0  0  0  0  0  0
    3.8911   -0.6340   -2.6973 H   0  0  0  0  0  0  0  0  0  0  0  0
    5.3466    0.1046   -3.4670 H   0  0  0  0  0  0  0  0  0  0  0  0
    5.2843   -1.6774   -3.1472 H   0  0  0  0  0  0  0  0  0  0  0  0
    5.1088    2.0116    0.7806 H   0  0  0  0  0  0  0  0  0  0  0  0
    4.1823   -1.8869    2.8931 H   0  0  0  0  0  0  0  0  0  0  0  0
    2.5193   -3.2649    4.0042 H   0  0  0  0  0  0  0  0  0  0  0  0
   -2.7851   -2.5428    0.8993 H   0  0  0  0  0  0  0  0  0  0  0  0
   -4.0410   -2.7714   -1.1474 H   0  0  0  0  0  0  0  0  0  0  0  0
   -4.1431   -0.1145   -2.6963 H   0  0  0  0  0  0  0  0  0  0  0  0
   -4.6623   -1.7356   -3.3192 H   0  0  0  0  0  0  0  0  0  0  0  0
   -2.5156   -1.1656   -3.8762 H   0  0  0  0  0  0  0  0  0  0  0  0
   -6.0848   -0.4838   -1.3044 H   0  0  0  0  0  0  0  0  0  0  0  0
   -6.2982   -3.2817   -0.7647 H   0  0  0  0  0  0  0  0  0  0  0  0
   -6.8924   -1.5645    1.0499 H   0  0  0  0  0  0  0  0  0  0  0  0
   -6.2468    0.3364    1.8873 H   0  0  0  0  0  0  0  0  0  0  0  0
   -4.8650   -1.5790    2.5949 H   0  0  0  0  0  0  0  0  0  0  0  0
   -4.5035   -3.7069    2.2196 H   0  0  0  0  0  0  0  0  0  0  0  0
    2.8603    1.3201    0.3508 H   0  0  0  0  0  0  0  0  0  0  0  0
   -3.0568    1.9243    2.0268 H   0  0  0  0  0  0  0  0  0  0  0  0
   -6.0667    4.0732    2.6885 H   0  0  0  0  0  0  0  0  0  0  0  0
   -4.2825    3.9426    2.9208 H   0  0  0  0  0  0  0  0  0  0  0  0
   -5.2999    2.4442    2.7578 H   0  0  0  0  0  0  0  0  0  0  0  0
   -4.7036    4.1164   -2.7135 H   0  0  0  0  0  0  0  0  0  0  0  0
   -2.6562    2.7582   -2.8462 H   0  0  0  0  0  0  0  0  0  0  0  0
   -0.9921    1.3557   -1.7011 H   0  0  0  0  0  0  0  0  0  0  0  0
    7.3631    1.2321    1.6184 H   0  0  0  0  0  0  0  0  0  0  0  0
    7.3176    3.0590    0.4029 H   0  0  0  0  0  0  0  0  0  0  0  0
    7.4459   -0.9826    0.6436 H   0  0  0  0  0  0  0  0  0  0  0  0
    9.3607    0.6523   -0.7183 H   0  0  0  0  0  0  0  0  0  0  0  0
    7.4826    0.3535   -2.1350 H   0  0  0  0  0  0  0  0  0  0  0  0
    7.7385   -1.6633   -2.8242 H   0  0  0  0  0  0  0  0  0  0  0  0
  1  2  1  0
  1  3  1  0
  3  4  1  0
  4  5  1  0
  5  6  1  0
  6  7  2  0
  7  8  1  0
  8  9  1  0
  8 10  2  0
 10 11  1  0
 11 12  2  0
 11 13  1  0
 13 14  1  0
 14 15  1  0
 15 16  1  0
 16 17  1  0
 17 18  1  0
 18 19  1  0
 17 20  1  0
 20 21  1  0
 20 22  1  0
 22 23  1  0
 22 24  1  0
 24 25  1  0
 13 26  2  0
 26 27  1  0
 27 28  1  0
 28 29  2  0
 26 30  1  0
 30 31  2  0
 31 32  1  0
 32 33  1  0
 33 34  1  0
 32 35  2  0
 35 36  1  0
 35 37  1  0
 37 38  2  0
  4 39  1  0
 39 40  1  0
 39 41  1  0
 41 42  1  0
 41 43  1  0
 43 44  1  0
 43  1  1  0
 29  6  1  0
 38 30  1  0
 28 10  1  0
 24 15  1  0
  1 45  1  1
  2 46  1  0
  2 47  1  0
  2 48  1  0
  4 49  1  1
  7 50  1  0
  9 51  1  0
 15 52  1  6
 17 53  1  6
 18 54  1  0
 18 55  1  0
 19 56  1  0
 20 57  1  6
 21 58  1  0
 22 59  1  1
 23 60  1  0
 24 61  1  1
 25 62  1  0
 29 63  1  0
 31 64  1  0
 34 65  1  0
 34 66  1  0
 34 67  1  0
 36 68  1  0
 37 69  1  0
 38 70  1  0
 39 71  1  1
 40 72  1  0
 41 73  1  1
 42 74  1  0
 43 75  1  6
 44 76  1  0
M  END
>  <LIG_ID>  (187) 
186

>  <_smiles>  (187) 
[H][C@@]1(C)O[C@@]([H])(OC2=CC(O)=C3C(=O)C(O[C@]4([H])O[C@]([H])(CO)[C@@]([H])(O)[C@]([H])(O)[C@@]4([H])O)=C(OC3=C2)C2=CC(OC)=C(O)C=C2)[C@]([H])(O)[C@]([H])(O)[C@@]1([H])O

>  <_name>  (187) 
Isorhamnetin 3-O-glucoside 7-O-rhamnoside

>  <_molecular_weight>  (187) 
624.544

>  <_formula>  (187) 
C28H32O16

>  <_logP>  (187) 
-1.7352000000000016

>  <_molecular_wt_calculated>  (187) 
624.5480000000016

>  <_havy_atom_count>  (187) 
44

>  <_hydrogen_acceptors>  (187) 
16

>  <_hydrogen_donors>  (187) 
9

>  <_rotatable_bonds>  (187) 
18

>  <_amide_bonds>  (187) 
0

>  <_ring_count>  (187) 
5

$$$$
Isorhamnetin 3-O-rutinoside
     RDKit          3D

 55 58  0  0  0  0  0  0  0  0999 V2000
   -0.1356   -4.5254    0.1421 C   0  0  0  0  0  0  0  0  0  0  0  0
   -0.8927   -4.1947    1.3021 O   0  0  0  0  0  0  0  0  0  0  0  0
   -1.4814   -2.9419    1.5353 C   0  0  0  0  0  0  0  0  0  0  0  0
   -2.1367   -2.7278    2.7556 C   0  0  0  0  0  0  0  0  0  0  0  0
   -2.1961   -3.7554    3.6955 O   0  0  0  0  0  0  0  0  0  0  0  0
   -2.7281   -1.4878    3.0273 C   0  0  0  0  0  0  0  0  0  0  0  0
   -2.6572   -0.4535    2.0924 C   0  0  0  0  0  0  0  0  0  0  0  0
   -1.9908   -0.6422    0.8723 C   0  0  0  0  0  0  0  0  0  0  0  0
   -1.4307   -1.9014    0.5871 C   0  0  0  0  0  0  0  0  0  0  0  0
   -1.9209    0.4771   -0.0989 C   0  0  0  0  0  0  0  0  0  0  0  0
   -0.7453    0.7679   -0.8186 C   0  0  0  0  0  0  0  0  0  0  0  0
    0.3922   -0.0261   -0.5680 O   0  0  0  0  0  0  0  0  0  0  0  0
    1.7541    0.2339   -0.9135 C   0  0  2  0  0  0  0  0  0  0  0  0
    2.5094   -0.9161   -0.5960 O   0  0  0  0  0  0  0  0  0  0  0  0
    3.0931   -0.6776    0.6623 C   0  0  1  0  0  0  0  0  0  0  0  0
    4.2926   -1.6251    0.8978 C   0  0  0  0  0  0  0  0  0  0  0  0
    3.8448   -3.0918    0.9372 C   0  0  0  0  0  0  0  0  0  0  0  0
    4.9676   -1.2941    2.0860 O   0  0  0  0  0  0  0  0  0  0  0  0
    3.4466    0.8092    0.7091 C   0  0  1  0  0  0  0  0  0  0  0  0
    4.7103    1.0842    0.1462 O   0  0  0  0  0  0  0  0  0  0  0  0
    2.3101    1.4192   -0.0955 C   0  0  1  0  0  0  0  0  0  0  0  0
    2.7220    2.5084   -0.8892 O   0  0  0  0  0  0  0  0  0  0  0  0
   -0.7681    1.8458   -1.7332 C   0  0  0  0  0  0  0  0  0  0  0  0
    0.2746    2.1461   -2.3652 O   0  0  0  0  0  0  0  0  0  0  0  0
   -1.9567    2.5962   -1.9102 C   0  0  0  0  0  0  0  0  0  0  0  0
   -2.1019    3.6782   -2.8317 C   0  0  0  0  0  0  0  0  0  0  0  0
   -1.1397    4.0292   -3.7834 O   0  0  0  0  0  0  0  0  0  0  0  0
   -3.2789    4.4370   -2.8272 C   0  0  0  0  0  0  0  0  0  0  0  0
   -4.3432    4.1097   -1.9842 C   0  0  0  0  0  0  0  0  0  0  0  0
   -5.5174    4.8593   -1.9978 O   0  0  0  0  0  0  0  0  0  0  0  0
   -4.2353    3.0173   -1.1278 C   0  0  0  0  0  0  0  0  0  0  0  0
   -3.0587    2.2656   -1.0821 C   0  0  0  0  0  0  0  0  0  0  0  0
   -2.9958    1.2410   -0.2437 O   0  0  0  0  0  0  0  0  0  0  0  0
    0.7315   -3.8381    0.0434 H   0  0  0  0  0  0  0  0  0  0  0  0
   -0.7767   -4.4650   -0.7624 H   0  0  0  0  0  0  0  0  0  0  0  0
    0.2431   -5.5633    0.2399 H   0  0  0  0  0  0  0  0  0  0  0  0
   -2.6620   -3.6327    4.5870 H   0  0  0  0  0  0  0  0  0  0  0  0
   -3.2376   -1.3221    3.9680 H   0  0  0  0  0  0  0  0  0  0  0  0
   -3.1096    0.5019    2.3290 H   0  0  0  0  0  0  0  0  0  0  0  0
   -0.9722   -2.0737   -0.3763 H   0  0  0  0  0  0  0  0  0  0  0  0
    1.8464    0.3910   -2.0077 H   0  0  0  0  0  0  0  0  0  0  0  0
    2.3286   -0.8817    1.4499 H   0  0  0  0  0  0  0  0  0  0  0  0
    5.0104   -1.5229    0.0557 H   0  0  0  0  0  0  0  0  0  0  0  0
    3.3958   -3.3845   -0.0356 H   0  0  0  0  0  0  0  0  0  0  0  0
    4.7209   -3.7469    1.1287 H   0  0  0  0  0  0  0  0  0  0  0  0
    3.0962   -3.2526    1.7424 H   0  0  0  0  0  0  0  0  0  0  0  0
    4.3199   -1.3839    2.8338 H   0  0  0  0  0  0  0  0  0  0  0  0
    3.4332    1.1809    1.7572 H   0  0  0  0  0  0  0  0  0  0  0  0
    4.7426    0.6800   -0.7604 H   0  0  0  0  0  0  0  0  0  0  0  0
    1.5328    1.7844    0.6124 H   0  0  0  0  0  0  0  0  0  0  0  0
    3.2340    2.1612   -1.6647 H   0  0  0  0  0  0  0  0  0  0  0  0
   -0.4105    3.4167   -4.1166 H   0  0  0  0  0  0  0  0  0  0  0  0
   -3.3771    5.2709   -3.5115 H   0  0  0  0  0  0  0  0  0  0  0  0
   -5.6292    5.6583   -2.6111 H   0  0  0  0  0  0  0  0  0  0  0  0
   -5.0665    2.7575   -0.4835 H   0  0  0  0  0  0  0  0  0  0  0  0
  1  2  1  0
  2  3  1  0
  3  4  2  0
  4  5  1  0
  4  6  1  0
  6  7  2  0
  7  8  1  0
  8  9  2  0
  8 10  1  0
 10 11  2  0
 11 12  1  0
 12 13  1  0
 13 14  1  0
 14 15  1  0
 15 16  1  0
 16 17  1  0
 16 18  1  0
 15 19  1  0
 19 20  1  0
 19 21  1  0
 21 22  1  0
 11 23  1  0
 23 24  2  0
 23 25  1  0
 25 26  2  0
 26 27  1  0
 26 28  1  0
 28 29  2  0
 29 30  1  0
 29 31  1  0
 31 32  2  0
 32 33  1  0
  9  3  1  0
 33 10  1  0
 21 13  1  0
 32 25  1  0
  1 34  1  0
  1 35  1  0
  1 36  1  0
  5 37  1  0
  6 38  1  0
  7 39  1  0
  9 40  1  0
 13 41  1  6
 15 42  1  1
 16 43  1  0
 17 44  1  0
 17 45  1  0
 17 46  1  0
 18 47  1  0
 19 48  1  1
 20 49  1  0
 21 50  1  1
 22 51  1  0
 27 52  1  0
 28 53  1  0
 30 54  1  0
 31 55  1  0
M  END
>  <LIG_ID>  (188) 
187

>  <_smiles>  (188) 
COC1=C(O)C=CC(=C1)C1=C(O[C@@H]2O[C@@H](C(C)O)[C@@H](O)[C@H]2O)C(=O)C2=C(O)C=C(O)C=C2O1

>  <_name>  (188) 
Isorhamnetin 3-O-rutinoside

>  <_molecular_weight>  (188) 
462.404

>  <_formula>  (188) 
C22H22O11

>  <_logP>  (188) 
0.7916999999999996

>  <_molecular_wt_calculated>  (188) 
462.40699999999987

>  <_havy_atom_count>  (188) 
33

>  <_hydrogen_acceptors>  (188) 
11

>  <_hydrogen_donors>  (188) 
6

>  <_rotatable_bonds>  (188) 
13

>  <_amide_bonds>  (188) 
0

>  <_ring_count>  (188) 
4

$$$$
Kaempferol 3-O-glucuronide
     RDKit          3D

 51 54  0  0  0  0  0  0  0  0999 V2000
    4.1250    0.9833   -3.2438 O   0  0  0  0  0  0  0  0  0  0  0  0
    3.4310   -0.0477   -2.5858 C   0  0  0  0  0  0  0  0  0  0  0  0
    1.9644    0.3830   -2.3319 C   0  0  0  0  0  0  0  0  0  0  0  0
    1.8635    1.7785   -2.1796 O   0  0  0  0  0  0  0  0  0  0  0  0
    1.4231   -0.2998   -1.0611 C   0  0  0  0  0  0  0  0  0  0  0  0
    0.0544    0.0698   -0.9039 O   0  0  0  0  0  0  0  0  0  0  0  0
   -0.8508   -0.3799    0.0796 C   0  0  0  0  0  0  0  0  0  0  0  0
   -2.0977    0.2666    0.1705 C   0  0  0  0  0  0  0  0  0  0  0  0
   -3.0024   -0.1471    1.0477 O   0  0  0  0  0  0  0  0  0  0  0  0
   -2.8075   -1.1625    1.8768 C   0  0  0  0  0  0  0  0  0  0  0  0
   -3.8198   -1.4842    2.7842 C   0  0  0  0  0  0  0  0  0  0  0  0
   -3.6513   -2.5274    3.6903 C   0  0  0  0  0  0  0  0  0  0  0  0
   -4.6642   -2.8162    4.6024 O   0  0  0  0  0  0  0  0  0  0  0  0
   -2.4745   -3.2790    3.6707 C   0  0  0  0  0  0  0  0  0  0  0  0
   -1.4598   -3.0075    2.7446 C   0  0  0  0  0  0  0  0  0  0  0  0
   -0.3700   -3.8835    2.7436 O   0  0  0  0  0  0  0  0  0  0  0  0
   -1.5963   -1.8991    1.8531 C   0  0  0  0  0  0  0  0  0  0  0  0
   -0.5904   -1.4598    0.9567 C   0  0  0  0  0  0  0  0  0  0  0  0
    0.5397   -2.0087    0.9497 O   0  0  0  0  0  0  0  0  0  0  0  0
   -2.4480    1.4156   -0.6954 C   0  0  0  0  0  0  0  0  0  0  0  0
   -3.7245    1.4790   -1.2779 C   0  0  0  0  0  0  0  0  0  0  0  0
   -4.0806    2.5634   -2.0857 C   0  0  0  0  0  0  0  0  0  0  0  0
   -3.1729    3.6032   -2.3087 C   0  0  0  0  0  0  0  0  0  0  0  0
   -3.5407    4.6761   -3.1174 O   0  0  0  0  0  0  0  0  0  0  0  0
   -1.9056    3.5585   -1.7134 C   0  0  0  0  0  0  0  0  0  0  0  0
   -1.5470    2.4761   -0.9046 C   0  0  0  0  0  0  0  0  0  0  0  0
    2.1392    0.0537    0.1201 O   0  0  0  0  0  0  0  0  0  0  0  0
    3.5247    0.3248   -0.0763 C   0  0  0  0  0  0  0  0  0  0  0  0
    4.1567   -0.4303   -1.2718 C   0  0  0  0  0  0  0  0  0  0  0  0
    4.0586   -1.8206   -1.0744 O   0  0  0  0  0  0  0  0  0  0  0  0
    4.2698    0.0199    1.1897 C   0  0  0  0  0  0  0  0  0  0  0  0
    5.3813    0.7814    1.5374 O   0  0  0  0  0  0  0  0  0  0  0  0
    3.9200   -0.9487    1.9170 O   0  0  0  0  0  0  0  0  0  0  0  0
    4.9202    0.5698   -3.6714 H   0  0  0  0  0  0  0  0  0  0  0  0
    3.4065   -0.9439   -3.2516 H   0  0  0  0  0  0  0  0  0  0  0  0
    1.3377    0.0528   -3.1951 H   0  0  0  0  0  0  0  0  0  0  0  0
    1.7761    2.1650   -3.0899 H   0  0  0  0  0  0  0  0  0  0  0  0
    1.4764   -1.3993   -1.2181 H   0  0  0  0  0  0  0  0  0  0  0  0
   -4.7373   -0.9084    2.7947 H   0  0  0  0  0  0  0  0  0  0  0  0
   -4.5741   -3.5703    5.2734 H   0  0  0  0  0  0  0  0  0  0  0  0
   -2.3584   -4.1064    4.3600 H   0  0  0  0  0  0  0  0  0  0  0  0
    0.2634   -4.0142    1.9695 H   0  0  0  0  0  0  0  0  0  0  0  0
   -4.4406    0.6823   -1.1176 H   0  0  0  0  0  0  0  0  0  0  0  0
   -5.0636    2.5959   -2.5381 H   0  0  0  0  0  0  0  0  0  0  0  0
   -2.9060    5.4454   -3.2972 H   0  0  0  0  0  0  0  0  0  0  0  0
   -1.2010    4.3655   -1.8696 H   0  0  0  0  0  0  0  0  0  0  0  0
   -0.5753    2.4796   -0.4273 H   0  0  0  0  0  0  0  0  0  0  0  0
    3.6373    1.4168   -0.2574 H   0  0  0  0  0  0  0  0  0  0  0  0
    5.2321   -0.1406   -1.3592 H   0  0  0  0  0  0  0  0  0  0  0  0
    4.8521   -2.0995   -0.5470 H   0  0  0  0  0  0  0  0  0  0  0  0
    5.9069    0.5788    2.3793 H   0  0  0  0  0  0  0  0  0  0  0  0
  1  2  1  0
  2  3  1  0
  3  4  1  0
  3  5  1  0
  5  6  1  0
  6  7  1  0
  7  8  2  0
  8  9  1  0
  9 10  1  0
 10 11  2  0
 11 12  1  0
 12 13  1  0
 12 14  2  0
 14 15  1  0
 15 16  1  0
 15 17  2  0
 17 18  1  0
 18 19  2  0
  8 20  1  0
 20 21  2  0
 21 22  1  0
 22 23  2  0
 23 24  1  0
 23 25  1  0
 25 26  2  0
  5 27  1  0
 27 28  1  0
 28 29  1  0
 29 30  1  0
 28 31  1  0
 31 32  1  0
 31 33  2  0
 29  2  1  0
 18  7  1  0
 26 20  1  0
 17 10  1  0
  1 34  1  0
  2 35  1  0
  3 36  1  0
  4 37  1  0
  5 38  1  0
 11 39  1  0
 13 40  1  0
 14 41  1  0
 16 42  1  0
 21 43  1  0
 22 44  1  0
 24 45  1  0
 25 46  1  0
 26 47  1  0
 28 48  1  0
 29 49  1  0
 30 50  1  0
 32 51  1  0
M  END
>  <LIG_ID>  (189) 
188

>  <_smiles>  (189) 
OC1C(O)C(OC2=C(OC3=CC(O)=CC(O)=C3C2=O)C2=CC=C(O)C=C2)OC(C1O)C(O)=O

>  <_name>  (189) 
Kaempferol 3-O-glucuronide

>  <_molecular_weight>  (189) 
462.36

>  <_formula>  (189) 
C21H18O12

>  <_logP>  (189) 
-0.15220000000000056

>  <_molecular_wt_calculated>  (189) 
462.36299999999994

>  <_havy_atom_count>  (189) 
33

>  <_hydrogen_acceptors>  (189) 
12

>  <_hydrogen_donors>  (189) 
7

>  <_rotatable_bonds>  (189) 
10

>  <_amide_bonds>  (189) 
0

>  <_ring_count>  (189) 
4

$$$$
Isorhamnetin 7-O-rhamnoside
     RDKit          3D

 56 59  0  0  0  0  0  0  0  0999 V2000
    5.6474    3.2691   -0.8029 C   0  0  0  0  0  0  0  0  0  0  0  0
    6.5586    2.2088   -1.0733 O   0  0  0  0  0  0  0  0  0  0  0  0
    6.2814    0.8490   -0.8615 C   0  0  0  0  0  0  0  0  0  0  0  0
    7.2729   -0.0911   -1.1744 C   0  0  0  0  0  0  0  0  0  0  0  0
    8.4978    0.3414   -1.6800 O   0  0  0  0  0  0  0  0  0  0  0  0
    7.0310   -1.4573   -0.9840 C   0  0  0  0  0  0  0  0  0  0  0  0
    5.8055   -1.8921   -0.4761 C   0  0  0  0  0  0  0  0  0  0  0  0
    4.8077   -0.9629   -0.1377 C   0  0  0  0  0  0  0  0  0  0  0  0
    5.0460    0.4051   -0.3494 C   0  0  0  0  0  0  0  0  0  0  0  0
    3.4908   -1.4016    0.3784 C   0  0  0  0  0  0  0  0  0  0  0  0
    3.3672   -2.4099    1.3536 C   0  0  0  0  0  0  0  0  0  0  0  0
    4.5061   -3.0031    1.9042 O   0  0  0  0  0  0  0  0  0  0  0  0
    2.0842   -2.7851    1.7817 C   0  0  0  0  0  0  0  0  0  0  0  0
    1.9604   -3.6945    2.6467 O   0  0  0  0  0  0  0  0  0  0  0  0
    0.9529   -2.1356    1.2461 C   0  0  0  0  0  0  0  0  0  0  0  0
   -0.3728   -2.4512    1.6252 C   0  0  0  0  0  0  0  0  0  0  0  0
   -0.6311   -3.4522    2.5628 O   0  0  0  0  0  0  0  0  0  0  0  0
   -1.4469   -1.7527    1.0539 C   0  0  0  0  0  0  0  0  0  0  0  0
   -1.2228   -0.7358    0.1089 C   0  0  0  0  0  0  0  0  0  0  0  0
   -2.2645   -0.0048   -0.4872 O   0  0  0  0  0  0  0  0  0  0  0  0
   -3.6525   -0.0889   -0.1544 C   0  0  2  0  0  0  0  0  0  0  0  0
   -4.3788    0.5094   -1.2194 O   0  0  0  0  0  0  0  0  0  0  0  0
   -5.7177    0.7682   -0.8454 C   0  0  2  0  0  0  0  0  0  0  0  0
   -6.5539    1.0206   -2.1056 C   0  0  0  0  0  0  0  0  0  0  0  0
   -5.9910    2.0528   -2.8689 O   0  0  0  0  0  0  0  0  0  0  0  0
   -5.7725    1.9739    0.1263 C   0  0  1  0  0  0  0  0  0  0  0  0
   -6.9420    1.8788    0.8999 O   0  0  0  0  0  0  0  0  0  0  0  0
   -4.5221    2.0044    1.0492 C   0  0  2  0  0  0  0  0  0  0  0  0
   -3.5580    2.9137    0.5731 O   0  0  0  0  0  0  0  0  0  0  0  0
   -3.9061    0.6021    1.2259 C   0  0  1  0  0  0  0  0  0  0  0  0
   -4.7858   -0.1784    1.9964 O   0  0  0  0  0  0  0  0  0  0  0  0
    0.0877   -0.4319   -0.2667 C   0  0  0  0  0  0  0  0  0  0  0  0
    1.1700   -1.1179    0.2901 C   0  0  0  0  0  0  0  0  0  0  0  0
    2.4016   -0.8015   -0.0930 O   0  0  0  0  0  0  0  0  0  0  0  0
    5.3859    3.2821    0.2763 H   0  0  0  0  0  0  0  0  0  0  0  0
    4.7303    3.1507   -1.4179 H   0  0  0  0  0  0  0  0  0  0  0  0
    6.1273    4.2346   -1.0635 H   0  0  0  0  0  0  0  0  0  0  0  0
    9.2345   -0.3126   -1.9173 H   0  0  0  0  0  0  0  0  0  0  0  0
    7.7910   -2.1852   -1.2385 H   0  0  0  0  0  0  0  0  0  0  0  0
    5.6311   -2.9553   -0.3722 H   0  0  0  0  0  0  0  0  0  0  0  0
    4.2703    1.1180   -0.1021 H   0  0  0  0  0  0  0  0  0  0  0  0
    4.4532   -3.7242    2.6137 H   0  0  0  0  0  0  0  0  0  0  0  0
   -1.5754   -3.6889    2.8447 H   0  0  0  0  0  0  0  0  0  0  0  0
   -2.4494   -2.0165    1.3529 H   0  0  0  0  0  0  0  0  0  0  0  0
   -3.9420   -1.1627   -0.1122 H   0  0  0  0  0  0  0  0  0  0  0  0
   -6.1597   -0.1302   -0.3501 H   0  0  0  0  0  0  0  0  0  0  0  0
   -6.5841    0.0870   -2.7110 H   0  0  0  0  0  0  0  0  0  0  0  0
   -7.5962    1.2853   -1.8173 H   0  0  0  0  0  0  0  0  0  0  0  0
   -6.5825    2.1654   -3.6578 H   0  0  0  0  0  0  0  0  0  0  0  0
   -5.7994    2.9235   -0.4596 H   0  0  0  0  0  0  0  0  0  0  0  0
   -7.1124    2.7813    1.2776 H   0  0  0  0  0  0  0  0  0  0  0  0
   -4.8267    2.3697    2.0550 H   0  0  0  0  0  0  0  0  0  0  0  0
   -3.3208    2.6574   -0.3552 H   0  0  0  0  0  0  0  0  0  0  0  0
   -2.9457    0.7224    1.7811 H   0  0  0  0  0  0  0  0  0  0  0  0
   -4.2469   -0.8984    2.4152 H   0  0  0  0  0  0  0  0  0  0  0  0
    0.2667    0.3477   -0.9972 H   0  0  0  0  0  0  0  0  0  0  0  0
  1  2  1  0
  2  3  1  0
  3  4  2  0
  4  5  1  0
  4  6  1  0
  6  7  2  0
  7  8  1  0
  8  9  2  0
  8 10  1  0
 10 11  2  0
 11 12  1  0
 11 13  1  0
 13 14  2  0
 13 15  1  0
 15 16  2  0
 16 17  1  0
 16 18  1  0
 18 19  2  0
 19 20  1  0
 20 21  1  0
 21 22  1  0
 22 23  1  0
 23 24  1  0
 24 25  1  0
 23 26  1  0
 26 27  1  0
 26 28  1  0
 28 29  1  0
 28 30  1  0
 30 31  1  0
 19 32  1  0
 32 33  2  0
 33 34  1  0
  9  3  1  0
 34 10  1  0
 33 15  1  0
 30 21  1  0
  1 35  1  0
  1 36  1  0
  1 37  1  0
  5 38  1  0
  6 39  1  0
  7 40  1  0
  9 41  1  0
 12 42  1  0
 17 43  1  0
 18 44  1  0
 21 45  1  1
 23 46  1  1
 24 47  1  0
 24 48  1  0
 25 49  1  0
 26 50  1  6
 27 51  1  0
 28 52  1  1
 29 53  1  0
 30 54  1  1
 31 55  1  0
 32 56  1  0
M  END
>  <LIG_ID>  (190) 
189

>  <_smiles>  (190) 
COC1=C(O)C=CC(=C1)C1=C(O)C(=O)C2=C(O)C=C(O[C@@H]3O[C@H](CO)[C@@H](O)[C@H](O)[C@H]3O)C=C2O1

>  <_name>  (190) 
Isorhamnetin 7-O-rhamnoside

>  <_molecular_weight>  (190) 
478.403

>  <_formula>  (190) 
C22H22O12

>  <_logP>  (190) 
-0.23590000000000017

>  <_molecular_wt_calculated>  (190) 
478.4059999999999

>  <_havy_atom_count>  (190) 
34

>  <_hydrogen_acceptors>  (190) 
12

>  <_hydrogen_donors>  (190) 
7

>  <_rotatable_bonds>  (190) 
13

>  <_amide_bonds>  (190) 
0

>  <_ring_count>  (190) 
4

$$$$
Quercetin 3,4'-O-diglucoside
     RDKit          3D

 74 78  0  0  0  0  0  0  0  0999 V2000
   -5.3066   -1.9194   -2.5688 O   0  0  0  0  0  0  0  0  0  0  0  0
   -5.6669   -0.7725   -1.8467 C   0  0  0  0  0  0  0  0  0  0  0  0
   -5.8109   -1.0994   -0.3519 C   0  0  1  0  0  0  0  0  0  0  0  0
   -4.6075   -1.7353    0.0772 O   0  0  0  0  0  0  0  0  0  0  0  0
   -4.2079   -1.4545    1.4141 C   0  0  1  0  0  0  0  0  0  0  0  0
   -3.4152   -0.2663    1.4552 O   0  0  0  0  0  0  0  0  0  0  0  0
   -2.2588    0.0015    0.7010 C   0  0  0  0  0  0  0  0  0  0  0  0
   -1.5371   -0.9774   -0.0244 C   0  0  0  0  0  0  0  0  0  0  0  0
   -1.9199   -2.3168   -0.0132 O   0  0  0  0  0  0  0  0  0  0  0  0
   -0.4038   -0.6009   -0.7608 C   0  0  0  0  0  0  0  0  0  0  0  0
    0.0486    0.7287   -0.7572 C   0  0  0  0  0  0  0  0  0  0  0  0
   -0.6749    1.6915   -0.0429 C   0  0  0  0  0  0  0  0  0  0  0  0
   -1.8099    1.3272    0.6827 C   0  0  0  0  0  0  0  0  0  0  0  0
    1.2580    1.1331   -1.5096 C   0  0  0  0  0  0  0  0  0  0  0  0
    2.4316    0.3496   -1.5272 C   0  0  0  0  0  0  0  0  0  0  0  0
    2.5456   -0.8225   -0.7720 O   0  0  0  0  0  0  0  0  0  0  0  0
    2.6406   -0.8066    0.6515 C   0  0  2  0  0  0  0  0  0  0  0  0
    3.9193   -0.2992    1.0068 O   0  0  0  0  0  0  0  0  0  0  0  0
    4.1859   -0.5255    2.3766 C   0  0  2  0  0  0  0  0  0  0  0  0
    5.3612    0.3561    2.8089 C   0  0  0  0  0  0  0  0  0  0  0  0
    5.0187    1.7057    2.6560 O   0  0  0  0  0  0  0  0  0  0  0  0
    4.5002   -2.0241    2.6103 C   0  0  1  0  0  0  0  0  0  0  0  0
    4.2017   -2.3465    3.9452 O   0  0  0  0  0  0  0  0  0  0  0  0
    3.6815   -2.9281    1.6463 C   0  0  2  0  0  0  0  0  0  0  0  0
    4.4542   -3.3174    0.5353 O   0  0  0  0  0  0  0  0  0  0  0  0
    2.3749   -2.2445    1.1852 C   0  0  1  0  0  0  0  0  0  0  0  0
    1.4730   -2.1764    2.2619 O   0  0  0  0  0  0  0  0  0  0  0  0
    3.5114    0.7635   -2.3137 C   0  0  0  0  0  0  0  0  0  0  0  0
    4.5515    0.0511   -2.3524 O   0  0  0  0  0  0  0  0  0  0  0  0
    3.4282    1.9726   -3.0332 C   0  0  0  0  0  0  0  0  0  0  0  0
    4.4818    2.4683   -3.8379 C   0  0  0  0  0  0  0  0  0  0  0  0
    5.6778    1.7615   -3.9703 O   0  0  0  0  0  0  0  0  0  0  0  0
    4.3262    3.6878   -4.5134 C   0  0  0  0  0  0  0  0  0  0  0  0
    3.1418    4.4195   -4.3995 C   0  0  0  0  0  0  0  0  0  0  0  0
    3.0135    5.6284   -5.0797 O   0  0  0  0  0  0  0  0  0  0  0  0
    2.0968    3.9340   -3.6065 C   0  0  0  0  0  0  0  0  0  0  0  0
    2.2313    2.7199   -2.9270 C   0  0  0  0  0  0  0  0  0  0  0  0
    1.2203    2.2764   -2.1880 O   0  0  0  0  0  0  0  0  0  0  0  0
   -5.3950   -1.3206    2.3834 C   0  0  2  0  0  0  0  0  0  0  0  0
   -6.0949   -2.5389    2.4107 O   0  0  0  0  0  0  0  0  0  0  0  0
   -6.3396   -0.1695    1.9515 C   0  0  1  0  0  0  0  0  0  0  0  0
   -6.0737    0.9844    2.7078 O   0  0  0  0  0  0  0  0  0  0  0  0
   -6.1880    0.1715    0.4553 C   0  0  2  0  0  0  0  0  0  0  0  0
   -7.4030    0.7061   -0.0114 O   0  0  0  0  0  0  0  0  0  0  0  0
   -6.1226   -2.4812   -2.6354 H   0  0  0  0  0  0  0  0  0  0  0  0
   -4.8712   -0.0086   -1.9819 H   0  0  0  0  0  0  0  0  0  0  0  0
   -6.6153   -0.3552   -2.2544 H   0  0  0  0  0  0  0  0  0  0  0  0
   -6.6420   -1.8326   -0.2486 H   0  0  0  0  0  0  0  0  0  0  0  0
   -3.5908   -2.3016    1.7820 H   0  0  0  0  0  0  0  0  0  0  0  0
   -1.4040   -3.0247   -0.5227 H   0  0  0  0  0  0  0  0  0  0  0  0
    0.1217   -1.3512   -1.3376 H   0  0  0  0  0  0  0  0  0  0  0  0
   -0.3513    2.7253   -0.0325 H   0  0  0  0  0  0  0  0  0  0  0  0
   -2.3520    2.0852    1.2342 H   0  0  0  0  0  0  0  0  0  0  0  0
    1.8623   -0.1193    1.0530 H   0  0  0  0  0  0  0  0  0  0  0  0
    3.3085   -0.2241    2.9996 H   0  0  0  0  0  0  0  0  0  0  0  0
    6.2542    0.1249    2.1850 H   0  0  0  0  0  0  0  0  0  0  0  0
    5.6045    0.1539    3.8764 H   0  0  0  0  0  0  0  0  0  0  0  0
    5.8128    2.2257    2.9455 H   0  0  0  0  0  0  0  0  0  0  0  0
    5.5862   -2.2062    2.4242 H   0  0  0  0  0  0  0  0  0  0  0  0
    4.6863   -3.1877    4.1541 H   0  0  0  0  0  0  0  0  0  0  0  0
    3.4083   -3.8656    2.1789 H   0  0  0  0  0  0  0  0  0  0  0  0
    4.7678   -2.4982    0.0724 H   0  0  0  0  0  0  0  0  0  0  0  0
    1.9167   -2.8575    0.3722 H   0  0  0  0  0  0  0  0  0  0  0  0
    1.0832   -3.0830    2.3723 H   0  0  0  0  0  0  0  0  0  0  0  0
    6.4397    2.1057   -4.5429 H   0  0  0  0  0  0  0  0  0  0  0  0
    5.1301    4.0705   -5.1297 H   0  0  0  0  0  0  0  0  0  0  0  0
    2.1679    6.1836   -5.0187 H   0  0  0  0  0  0  0  0  0  0  0  0
    1.1770    4.4993   -3.5191 H   0  0  0  0  0  0  0  0  0  0  0  0
   -4.9842   -1.1155    3.4007 H   0  0  0  0  0  0  0  0  0  0  0  0
   -6.6437   -2.5362    3.2383 H   0  0  0  0  0  0  0  0  0  0  0  0
   -7.3954   -0.4856    2.1328 H   0  0  0  0  0  0  0  0  0  0  0  0
   -6.4676    0.8364    3.6074 H   0  0  0  0  0  0  0  0  0  0  0  0
   -5.3681    0.9217    0.3373 H   0  0  0  0  0  0  0  0  0  0  0  0
   -7.1813    1.4260   -0.6581 H   0  0  0  0  0  0  0  0  0  0  0  0
  1  2  1  0
  2  3  1  0
  3  4  1  0
  4  5  1  0
  5  6  1  0
  6  7  1  0
  7  8  2  0
  8  9  1  0
  8 10  1  0
 10 11  2  0
 11 12  1  0
 12 13  2  0
 11 14  1  0
 14 15  2  0
 15 16  1  0
 16 17  1  0
 17 18  1  0
 18 19  1  0
 19 20  1  0
 20 21  1  0
 19 22  1  0
 22 23  1  0
 22 24  1  0
 24 25  1  0
 24 26  1  0
 26 27  1  0
 15 28  1  0
 28 29  2  0
 28 30  1  0
 30 31  2  0
 31 32  1  0
 31 33  1  0
 33 34  2  0
 34 35  1  0
 34 36  1  0
 36 37  2  0
 37 38  1  0
  5 39  1  0
 39 40  1  0
 39 41  1  0
 41 42  1  0
 41 43  1  0
 43 44  1  0
 43  3  1  0
 13  7  1  0
 38 14  1  0
 26 17  1  0
 37 30  1  0
  1 45  1  0
  2 46  1  0
  2 47  1  0
  3 48  1  6
  5 49  1  1
  9 50  1  0
 10 51  1  0
 12 52  1  0
 13 53  1  0
 17 54  1  1
 19 55  1  1
 20 56  1  0
 20 57  1  0
 21 58  1  0
 22 59  1  1
 23 60  1  0
 24 61  1  1
 25 62  1  0
 26 63  1  6
 27 64  1  0
 32 65  1  0
 33 66  1  0
 35 67  1  0
 36 68  1  0
 39 69  1  1
 40 70  1  0
 41 71  1  6
 42 72  1  0
 43 73  1  1
 44 74  1  0
M  END
>  <LIG_ID>  (191) 
190

>  <_smiles>  (191) 
OC[C@H]1O[C@@H](OC2=C(O)C=C(C=C2)C2=C(O[C@@H]3O[C@H](CO)[C@@H](O)[C@H](O)[C@H]3O)C(=O)C3=C(O)C=C(O)C=C3O2)[C@H](O)[C@@H](O)[C@@H]1O

>  <_name>  (191) 
Quercetin 3,4'-O-diglucoside

>  <_molecular_weight>  (191) 
626.517

>  <_formula>  (191) 
C27H30O17

>  <_logP>  (191) 
-3.0658

>  <_molecular_wt_calculated>  (191) 
626.5200000000015

>  <_havy_atom_count>  (191) 
44

>  <_hydrogen_acceptors>  (191) 
17

>  <_hydrogen_donors>  (191) 
11

>  <_rotatable_bonds>  (191) 
18

>  <_amide_bonds>  (191) 
0

>  <_ring_count>  (191) 
5

$$$$
Myricetin 3-O-rutinoside
     RDKit          3D

 74 78  0  0  0  0  0  0  0  0999 V2000
    3.2804    0.9793   -1.7917 C   0  0  0  0  0  0  0  0  0  0  0  0
    3.6086   -0.5057   -1.6236 C   0  0  0  0  0  0  0  0  0  0  0  0
    2.4486   -1.2674   -1.8949 O   0  0  0  0  0  0  0  0  0  0  0  0
    2.5738   -2.5943   -1.3866 C   0  0  0  0  0  0  0  0  0  0  0  0
    2.3214   -2.6212    0.0095 O   0  0  0  0  0  0  0  0  0  0  0  0
    0.9623   -2.3306    0.2671 C   0  0  0  0  0  0  0  0  0  0  0  0
    0.7306   -2.2088    1.7814 C   0  0  0  0  0  0  0  0  0  0  0  0
   -0.6568   -2.0065    2.0467 O   0  0  0  0  0  0  0  0  0  0  0  0
   -0.9883   -0.6328    2.1206 C   0  0  0  0  0  0  0  0  0  0  0  0
   -2.4101   -0.5044    2.1115 O   0  0  0  0  0  0  0  0  0  0  0  0
   -3.0615    0.6607    1.6841 C   0  0  0  0  0  0  0  0  0  0  0  0
   -2.9578    1.1283    0.3581 C   0  0  0  0  0  0  0  0  0  0  0  0
   -3.4987    2.2955    0.0305 O   0  0  0  0  0  0  0  0  0  0  0  0
   -4.2009    3.0391    0.8773 C   0  0  0  0  0  0  0  0  0  0  0  0
   -4.4422    2.5997    2.2055 C   0  0  0  0  0  0  0  0  0  0  0  0
   -5.2510    3.4129    3.0547 C   0  0  0  0  0  0  0  0  0  0  0  0
   -5.6525    3.0398    4.3407 O   0  0  0  0  0  0  0  0  0  0  0  0
   -5.7077    4.6532    2.5920 C   0  0  0  0  0  0  0  0  0  0  0  0
   -5.4382    5.0798    1.2891 C   0  0  0  0  0  0  0  0  0  0  0  0
   -5.9092    6.3087    0.8321 O   0  0  0  0  0  0  0  0  0  0  0  0
   -4.6999    4.2660    0.4335 C   0  0  0  0  0  0  0  0  0  0  0  0
   -3.8177    1.3942    2.6049 C   0  0  0  0  0  0  0  0  0  0  0  0
   -3.8803    0.9788    3.7915 O   0  0  0  0  0  0  0  0  0  0  0  0
   -2.2610    0.3630   -0.6996 C   0  0  0  0  0  0  0  0  0  0  0  0
   -2.4711   -1.0173   -0.8535 C   0  0  0  0  0  0  0  0  0  0  0  0
   -1.7966   -1.7312   -1.8532 C   0  0  0  0  0  0  0  0  0  0  0  0
   -1.9971   -3.1031   -1.9952 O   0  0  0  0  0  0  0  0  0  0  0  0
   -0.9104   -1.0682   -2.7118 C   0  0  0  0  0  0  0  0  0  0  0  0
   -0.2345   -1.7984   -3.6899 O   0  0  0  0  0  0  0  0  0  0  0  0
   -0.7098    0.3159   -2.5766 C   0  0  0  0  0  0  0  0  0  0  0  0
    0.1655    0.9807   -3.4335 O   0  0  0  0  0  0  0  0  0  0  0  0
   -1.3911    1.0258   -1.5779 C   0  0  0  0  0  0  0  0  0  0  0  0
   -0.4116   -0.0221    3.4208 C   0  0  0  0  0  0  0  0  0  0  0  0
   -0.3637    1.3819    3.3343 O   0  0  0  0  0  0  0  0  0  0  0  0
    0.9756   -0.6409    3.7526 C   0  0  0  0  0  0  0  0  0  0  0  0
    1.7953    0.2371    4.4864 O   0  0  0  0  0  0  0  0  0  0  0  0
    1.6757   -1.1786    2.4851 C   0  0  0  0  0  0  0  0  0  0  0  0
    1.9892   -0.1171    1.6140 O   0  0  0  0  0  0  0  0  0  0  0  0
    3.9598   -3.2382   -1.6971 C   0  0  0  0  0  0  0  0  0  0  0  0
    4.7827   -3.2014   -0.5565 O   0  0  0  0  0  0  0  0  0  0  0  0
    4.6458   -2.4927   -2.8570 C   0  0  0  0  0  0  0  0  0  0  0  0
    3.8827   -2.6795   -4.0247 O   0  0  0  0  0  0  0  0  0  0  0  0
    4.7827   -0.9829   -2.5273 C   0  0  0  0  0  0  0  0  0  0  0  0
    4.8493   -0.2473   -3.7259 O   0  0  0  0  0  0  0  0  0  0  0  0
    2.4799    1.2672   -1.0770 H   0  0  0  0  0  0  0  0  0  0  0  0
    4.1790    1.5975   -1.5822 H   0  0  0  0  0  0  0  0  0  0  0  0
    2.9199    1.1886   -2.8209 H   0  0  0  0  0  0  0  0  0  0  0  0
    3.9090   -0.6292   -0.5558 H   0  0  0  0  0  0  0  0  0  0  0  0
    1.8195   -3.2192   -1.9206 H   0  0  0  0  0  0  0  0  0  0  0  0
    0.3183   -3.1530   -0.1182 H   0  0  0  0  0  0  0  0  0  0  0  0
    0.6531   -1.3805   -0.2203 H   0  0  0  0  0  0  0  0  0  0  0  0
    0.9802   -3.2031    2.2138 H   0  0  0  0  0  0  0  0  0  0  0  0
   -0.5724   -0.0968    1.2405 H   0  0  0  0  0  0  0  0  0  0  0  0
   -5.6461    2.0947    4.6933 H   0  0  0  0  0  0  0  0  0  0  0  0
   -6.3041    5.2780    3.2455 H   0  0  0  0  0  0  0  0  0  0  0  0
   -6.4516    6.9233    1.4279 H   0  0  0  0  0  0  0  0  0  0  0  0
   -4.5032    4.5931   -0.5803 H   0  0  0  0  0  0  0  0  0  0  0  0
   -3.1615   -1.5389   -0.2025 H   0  0  0  0  0  0  0  0  0  0  0  0
   -2.6243   -3.6134   -1.3845 H   0  0  0  0  0  0  0  0  0  0  0  0
    0.4274   -1.3665   -4.3235 H   0  0  0  0  0  0  0  0  0  0  0  0
    0.3318    1.9772   -3.3543 H   0  0  0  0  0  0  0  0  0  0  0  0
   -1.2260    2.0916   -1.4742 H   0  0  0  0  0  0  0  0  0  0  0  0
   -1.0974   -0.2770    4.2588 H   0  0  0  0  0  0  0  0  0  0  0  0
    0.2067    1.6207    2.5582 H   0  0  0  0  0  0  0  0  0  0  0  0
    0.7927   -1.5228    4.4070 H   0  0  0  0  0  0  0  0  0  0  0  0
    2.0697    0.9802    3.8905 H   0  0  0  0  0  0  0  0  0  0  0  0
    2.6091   -1.7127    2.7876 H   0  0  0  0  0  0  0  0  0  0  0  0
    2.9256    0.1535    1.8018 H   0  0  0  0  0  0  0  0  0  0  0  0
    3.7979   -4.3022   -1.9929 H   0  0  0  0  0  0  0  0  0  0  0  0
    5.5176   -3.8514   -0.7094 H   0  0  0  0  0  0  0  0  0  0  0  0
    5.6637   -2.9273   -3.0034 H   0  0  0  0  0  0  0  0  0  0  0  0
    4.5046   -2.6052   -4.7952 H   0  0  0  0  0  0  0  0  0  0  0  0
    5.7306   -0.8492   -1.9516 H   0  0  0  0  0  0  0  0  0  0  0  0
    5.4405    0.5331   -3.5603 H   0  0  0  0  0  0  0  0  0  0  0  0
  1  2  1  0
  2  3  1  0
  3  4  1  0
  4  5  1  0
  5  6  1  0
  6  7  1  0
  7  8  1  0
  8  9  1  0
  9 10  1  0
 10 11  1  0
 11 12  2  0
 12 13  1  0
 13 14  1  0
 14 15  2  0
 15 16  1  0
 16 17  1  0
 16 18  2  0
 18 19  1  0
 19 20  1  0
 19 21  2  0
 15 22  1  0
 22 23  2  0
 12 24  1  0
 24 25  2  0
 25 26  1  0
 26 27  1  0
 26 28  2  0
 28 29  1  0
 28 30  1  0
 30 31  1  0
 30 32  2  0
  9 33  1  0
 33 34  1  0
 33 35  1  0
 35 36  1  0
 35 37  1  0
 37 38  1  0
  4 39  1  0
 39 40  1  0
 39 41  1  0
 41 42  1  0
 41 43  1  0
 43 44  1  0
 43  2  1  0
 37  7  1  0
 22 11  1  0
 32 24  1  0
 21 14  1  0
  1 45  1  0
  1 46  1  0
  1 47  1  0
  2 48  1  0
  4 49  1  0
  6 50  1  0
  6 51  1  0
  7 52  1  0
  9 53  1  0
 17 54  1  0
 18 55  1  0
 20 56  1  0
 21 57  1  0
 25 58  1  0
 27 59  1  0
 29 60  1  0
 31 61  1  0
 32 62  1  0
 33 63  1  0
 34 64  1  0
 35 65  1  0
 36 66  1  0
 37 67  1  0
 38 68  1  0
 39 69  1  0
 40 70  1  0
 41 71  1  0
 42 72  1  0
 43 73  1  0
 44 74  1  0
M  END
>  <LIG_ID>  (192) 
191

>  <_smiles>  (192) 
CC1OC(OCC2OC(OC3=C(OC4=C(C(O)=CC(O)=C4)C3=O)C3=CC(O)=C(O)C(O)=C3)C(O)C(O)C2O)C(O)C(O)C1O

>  <_name>  (192) 
Myricetin 3-O-rutinoside

>  <_molecular_weight>  (192) 
626.517

>  <_formula>  (192) 
C27H30O17

>  <_logP>  (192) 
-1.9815000000000011

>  <_molecular_wt_calculated>  (192) 
626.5200000000015

>  <_havy_atom_count>  (192) 
44

>  <_hydrogen_acceptors>  (192) 
17

>  <_hydrogen_donors>  (192) 
11

>  <_rotatable_bonds>  (192) 
18

>  <_amide_bonds>  (192) 
0

>  <_ring_count>  (192) 
5

$$$$
Myricetin
     RDKit          3D

 33 35  0  0  0  0  0  0  0  0999 V2000
    4.5937    2.9370    1.3258 O   0  0  0  0  0  0  0  0  0  0  0  0
    3.9464    1.8216    0.7985 C   0  0  0  0  0  0  0  0  0  0  0  0
    4.6791    0.7623    0.2571 C   0  0  0  0  0  0  0  0  0  0  0  0
    4.0362   -0.3556   -0.2888 C   0  0  0  0  0  0  0  0  0  0  0  0
    4.8557   -1.3162   -0.8888 O   0  0  0  0  0  0  0  0  0  0  0  0
    2.6130   -0.4458   -0.2328 C   0  0  0  0  0  0  0  0  0  0  0  0
    1.8860    0.6512    0.2984 C   0  0  0  0  0  0  0  0  0  0  0  0
    0.5587    0.6385    0.3276 O   0  0  0  0  0  0  0  0  0  0  0  0
   -0.1726   -0.3820   -0.1042 C   0  0  0  0  0  0  0  0  0  0  0  0
    0.4651   -1.5503   -0.5670 C   0  0  0  0  0  0  0  0  0  0  0  0
   -0.2502   -2.6980   -0.9219 O   0  0  0  0  0  0  0  0  0  0  0  0
    1.8630   -1.5777   -0.6323 C   0  0  0  0  0  0  0  0  0  0  0  0
    2.4224   -2.6408   -1.0086 O   0  0  0  0  0  0  0  0  0  0  0  0
   -1.6421   -0.2394   -0.0700 C   0  0  0  0  0  0  0  0  0  0  0  0
   -2.2681    0.2188    1.0981 C   0  0  0  0  0  0  0  0  0  0  0  0
   -3.6580    0.3988    1.1367 C   0  0  0  0  0  0  0  0  0  0  0  0
   -4.2737    0.8397    2.3072 O   0  0  0  0  0  0  0  0  0  0  0  0
   -4.4295    0.1356   -0.0083 C   0  0  0  0  0  0  0  0  0  0  0  0
   -5.8144    0.3041    0.0062 O   0  0  0  0  0  0  0  0  0  0  0  0
   -3.8053   -0.2980   -1.1854 C   0  0  0  0  0  0  0  0  0  0  0  0
   -4.5730   -0.5463   -2.3220 O   0  0  0  0  0  0  0  0  0  0  0  0
   -2.4156   -0.4762   -1.2173 C   0  0  0  0  0  0  0  0  0  0  0  0
    2.5547    1.7688    0.8037 C   0  0  0  0  0  0  0  0  0  0  0  0
    5.6045    3.0082    1.3349 H   0  0  0  0  0  0  0  0  0  0  0  0
    5.7605    0.8192    0.2319 H   0  0  0  0  0  0  0  0  0  0  0  0
    4.5398   -2.0078   -1.5518 H   0  0  0  0  0  0  0  0  0  0  0  0
   -1.2459   -2.7969   -0.7729 H   0  0  0  0  0  0  0  0  0  0  0  0
   -1.6773    0.4271    1.9821 H   0  0  0  0  0  0  0  0  0  0  0  0
   -3.7404    1.0370    3.1459 H   0  0  0  0  0  0  0  0  0  0  0  0
   -6.3107    0.6163    0.8322 H   0  0  0  0  0  0  0  0  0  0  0  0
   -4.1516   -0.8601   -3.1885 H   0  0  0  0  0  0  0  0  0  0  0  0
   -1.9387   -0.7901   -2.1380 H   0  0  0  0  0  0  0  0  0  0  0  0
    1.9884    2.5967    1.2127 H   0  0  0  0  0  0  0  0  0  0  0  0
  1  2  1  0
  2  3  2  0
  3  4  1  0
  4  5  1  0
  4  6  2  0
  6  7  1  0
  7  8  1  0
  8  9  1  0
  9 10  2  0
 10 11  1  0
 10 12  1  0
 12 13  2  0
  9 14  1  0
 14 15  2  0
 15 16  1  0
 16 17  1  0
 16 18  2  0
 18 19  1  0
 18 20  1  0
 20 21  1  0
 20 22  2  0
  7 23  2  0
 23  2  1  0
 12  6  1  0
 22 14  1  0
  1 24  1  0
  3 25  1  0
  5 26  1  0
 11 27  1  0
 15 28  1  0
 17 29  1  0
 19 30  1  0
 21 31  1  0
 22 32  1  0
 23 33  1  0
M  END
>  <LIG_ID>  (193) 
192

>  <_smiles>  (193) 
OC1=CC(O)=C2C(OC(=C(O)C2=O)C2=CC(O)=C(O)C(O)=C2)=C1

>  <_name>  (193) 
Myricetin

>  <_molecular_weight>  (193) 
318.235

>  <_formula>  (193) 
C15H10O8

>  <_logP>  (193) 
1.6936

>  <_molecular_wt_calculated>  (193) 
318.23699999999985

>  <_havy_atom_count>  (193) 
23

>  <_hydrogen_acceptors>  (193) 
8

>  <_hydrogen_donors>  (193) 
6

>  <_rotatable_bonds>  (193) 
7

>  <_amide_bonds>  (193) 
0

>  <_ring_count>  (193) 
3

$$$$
Morin
     RDKit          3D

 32 34  0  0  0  0  0  0  0  0999 V2000
    6.0556    0.6393    0.3178 O   0  0  0  0  0  0  0  0  0  0  0  0
    4.6895    0.3883    0.2100 C   0  0  0  0  0  0  0  0  0  0  0  0
    3.9148    1.1521   -0.6671 C   0  0  0  0  0  0  0  0  0  0  0  0
    2.5408    0.9154   -0.7970 C   0  0  0  0  0  0  0  0  0  0  0  0
    1.8224    1.6852   -1.7146 O   0  0  0  0  0  0  0  0  0  0  0  0
    1.9277   -0.0979   -0.0233 C   0  0  0  0  0  0  0  0  0  0  0  0
    2.7160   -0.8590    0.8578 C   0  0  0  0  0  0  0  0  0  0  0  0
    4.0873   -0.6200    0.9704 C   0  0  0  0  0  0  0  0  0  0  0  0
    0.4693   -0.3334   -0.0790 C   0  0  0  0  0  0  0  0  0  0  0  0
   -0.0558   -1.6125   -0.3320 C   0  0  0  0  0  0  0  0  0  0  0  0
    0.8039   -2.6880   -0.5703 O   0  0  0  0  0  0  0  0  0  0  0  0
   -1.4486   -1.7811   -0.3560 C   0  0  0  0  0  0  0  0  0  0  0  0
   -1.9314   -2.9247   -0.5789 O   0  0  0  0  0  0  0  0  0  0  0  0
   -2.2881   -0.6696   -0.1347 C   0  0  0  0  0  0  0  0  0  0  0  0
   -3.7014   -0.7527   -0.1449 C   0  0  0  0  0  0  0  0  0  0  0  0
   -4.3478   -1.9675   -0.3767 O   0  0  0  0  0  0  0  0  0  0  0  0
   -4.4677    0.4005    0.0806 C   0  0  0  0  0  0  0  0  0  0  0  0
   -3.8510    1.6315    0.3152 C   0  0  0  0  0  0  0  0  0  0  0  0
   -4.6353    2.7615    0.5358 O   0  0  0  0  0  0  0  0  0  0  0  0
   -2.4551    1.7201    0.3270 C   0  0  0  0  0  0  0  0  0  0  0  0
   -1.6735    0.5827    0.1050 C   0  0  0  0  0  0  0  0  0  0  0  0
   -0.3501    0.6937    0.1235 O   0  0  0  0  0  0  0  0  0  0  0  0
    6.6447    0.1031    0.9443 H   0  0  0  0  0  0  0  0  0  0  0  0
    4.3842    1.9280   -1.2591 H   0  0  0  0  0  0  0  0  0  0  0  0
    0.8464    1.5237   -1.9264 H   0  0  0  0  0  0  0  0  0  0  0  0
    2.2647   -1.6267    1.4746 H   0  0  0  0  0  0  0  0  0  0  0  0
    4.6791   -1.2133    1.6558 H   0  0  0  0  0  0  0  0  0  0  0  0
    0.4622   -3.6224   -0.7604 H   0  0  0  0  0  0  0  0  0  0  0  0
   -5.3585   -2.0402   -0.3867 H   0  0  0  0  0  0  0  0  0  0  0  0
   -5.5489    0.3406    0.0734 H   0  0  0  0  0  0  0  0  0  0  0  0
   -4.2198    3.6694    0.7090 H   0  0  0  0  0  0  0  0  0  0  0  0
   -1.9755    2.6740    0.5091 H   0  0  0  0  0  0  0  0  0  0  0  0
  1  2  1  0
  2  3  2  0
  3  4  1  0
  4  5  1  0
  4  6  2  0
  6  7  1  0
  7  8  2  0
  6  9  1  0
  9 10  2  0
 10 11  1  0
 10 12  1  0
 12 13  2  0
 12 14  1  0
 14 15  2  0
 15 16  1  0
 15 17  1  0
 17 18  2  0
 18 19  1  0
 18 20  1  0
 20 21  2  0
 21 22  1  0
  8  2  1  0
 22  9  1  0
 21 14  1  0
  1 23  1  0
  3 24  1  0
  5 25  1  0
  7 26  1  0
  8 27  1  0
 11 28  1  0
 16 29  1  0
 17 30  1  0
 19 31  1  0
 20 32  1  0
M  END
>  <LIG_ID>  (194) 
193

>  <_smiles>  (194) 
OC1=CC(O)=C(C=C1)C1=C(O)C(=O)C2=C(O)C=C(O)C=C2O1

>  <_name>  (194) 
Morin

>  <_molecular_weight>  (194) 
302.236

>  <_formula>  (194) 
C15H10O7

>  <_logP>  (194) 
1.9879999999999998

>  <_molecular_wt_calculated>  (194) 
302.23799999999983

>  <_havy_atom_count>  (194) 
22

>  <_hydrogen_acceptors>  (194) 
7

>  <_hydrogen_donors>  (194) 
5

>  <_rotatable_bonds>  (194) 
6

>  <_amide_bonds>  (194) 
0

>  <_ring_count>  (194) 
3

$$$$
Kaempferide
     RDKit          3D

 33 35  0  0  0  0  0  0  0  0999 V2000
    6.3177    0.0728   -1.3266 C   0  0  0  0  0  0  0  0  0  0  0  0
    5.3470   -0.8551   -0.8531 O   0  0  0  0  0  0  0  0  0  0  0  0
    4.0077   -0.5333   -0.5873 C   0  0  0  0  0  0  0  0  0  0  0  0
    3.1595   -1.5454   -0.1255 C   0  0  0  0  0  0  0  0  0  0  0  0
    1.8172   -1.2754    0.1551 C   0  0  0  0  0  0  0  0  0  0  0  0
    1.3027    0.0205   -0.0078 C   0  0  0  0  0  0  0  0  0  0  0  0
    2.1487    1.0342   -0.4909 C   0  0  0  0  0  0  0  0  0  0  0  0
    3.4911    0.7628   -0.7724 C   0  0  0  0  0  0  0  0  0  0  0  0
   -0.1283    0.2778    0.2738 C   0  0  0  0  0  0  0  0  0  0  0  0
   -0.5658    1.4431    0.9252 C   0  0  0  0  0  0  0  0  0  0  0  0
    0.3446    2.3869    1.3938 O   0  0  0  0  0  1  0  0  0  0  0  0
   -1.9342    1.6344    1.1414 C   0  0  0  0  0  0  0  0  0  0  0  0
   -2.3025    2.6591    1.7728 O   0  0  0  0  0  0  0  0  0  0  0  0
   -2.8609    0.6644    0.6899 C   0  0  0  0  0  0  0  0  0  0  0  0
   -4.2778    0.7728    0.8220 C   0  0  0  0  0  0  0  0  0  0  0  0
   -4.9335    1.9181    1.2832 O   0  0  0  0  0  0  0  0  0  0  0  0
   -5.0902   -0.3059    0.4509 C   0  0  0  0  0  0  0  0  0  0  0  0
   -4.5408   -1.4637   -0.1056 C   0  0  0  0  0  0  0  0  0  0  0  0
   -5.3580   -2.5260   -0.4861 O   0  0  0  0  0  0  0  0  0  0  0  0
   -3.1636   -1.5561   -0.2912 C   0  0  0  0  0  0  0  0  0  0  0  0
   -2.3239   -0.5111    0.1014 C   0  0  0  0  0  0  0  0  0  0  0  0
   -1.0152   -0.6443   -0.0830 O   0  0  0  0  0  0  0  0  0  0  0  0
    6.4451    0.8986   -0.5952 H   0  0  0  0  0  0  0  0  0  0  0  0
    6.0083    0.4793   -2.3125 H   0  0  0  0  0  0  0  0  0  0  0  0
    7.2894   -0.4487   -1.4465 H   0  0  0  0  0  0  0  0  0  0  0  0
    3.5429   -2.5481    0.0154 H   0  0  0  0  0  0  0  0  0  0  0  0
    1.1820   -2.0772    0.5116 H   0  0  0  0  0  0  0  0  0  0  0  0
    1.7686    2.0306   -0.6761 H   0  0  0  0  0  0  0  0  0  0  0  0
    4.1155    1.5649   -1.1413 H   0  0  0  0  0  0  0  0  0  0  0  0
   -4.5245    2.8393    1.3216 H   0  0  0  0  0  0  0  0  0  0  0  0
   -6.1639   -0.2290    0.5705 H   0  0  0  0  0  0  0  0  0  0  0  0
   -6.3638   -2.4900   -0.3672 H   0  0  0  0  0  0  0  0  0  0  0  0
   -2.7410   -2.4505   -0.7327 H   0  0  0  0  0  0  0  0  0  0  0  0
  1  2  1  0
  2  3  1  0
  3  4  2  0
  4  5  1  0
  5  6  2  0
  6  7  1  0
  7  8  2  0
  6  9  1  0
  9 10  2  0
 10 11  1  0
 10 12  1  0
 12 13  2  0
 12 14  1  0
 14 15  2  0
 15 16  1  0
 15 17  1  0
 17 18  2  0
 18 19  1  0
 18 20  1  0
 20 21  2  0
 21 22  1  0
  8  3  1  0
 22  9  1  0
 21 14  1  0
  1 23  1  0
  1 24  1  0
  1 25  1  0
  4 26  1  0
  5 27  1  0
  7 28  1  0
  8 29  1  0
 16 30  1  0
 17 31  1  0
 19 32  1  0
 20 33  1  0
M  CHG  1  11  -1
M  END
>  <LIG_ID>  (195) 
194

>  <_smiles>  (195) 
COC1=CC=C(C=C1)C1=C([O-])C(=O)C2=C(O)C=C(O)C=C2O1

>  <_name>  (195) 
Kaempferide

>  <_molecular_weight>  (195) 
299.255

>  <_formula>  (195) 
C16H11O6

>  <_logP>  (195) 
1.9533999999999996

>  <_molecular_wt_calculated>  (195) 
299.2579999999998

>  <_havy_atom_count>  (195) 
22

>  <_hydrogen_acceptors>  (195) 
6

>  <_hydrogen_donors>  (195) 
2

>  <_rotatable_bonds>  (195) 
5

>  <_amide_bonds>  (195) 
0

>  <_ring_count>  (195) 
3

$$$$
Myricetin 3-O-galactoside
     RDKit          3D

 54 57  0  0  0  0  0  0  0  0999 V2000
    3.5084   -3.1689   -0.2676 O   0  0  0  0  0  0  0  0  0  0  0  0
    2.4809   -2.3218    0.1674 C   0  0  0  0  0  0  0  0  0  0  0  0
    2.5542   -0.9638   -0.5547 C   0  0  1  0  0  0  0  0  0  0  0  0
    1.3255   -0.2709   -0.3412 O   0  0  0  0  0  0  0  0  0  0  0  0
    1.4189    0.9202    0.4313 C   0  0  1  0  0  0  0  0  0  0  0  0
    0.1171    1.2768    0.8898 O   0  0  0  0  0  0  0  0  0  0  0  0
   -0.9584    1.4489    0.0142 C   0  0  0  0  0  0  0  0  0  0  0  0
   -1.7884    0.3661   -0.3387 C   0  0  0  0  0  0  0  0  0  0  0  0
   -2.7751    0.5507   -1.2113 O   0  0  0  0  0  0  0  0  0  0  0  0
   -3.0474    1.7269   -1.7660 C   0  0  0  0  0  0  0  0  0  0  0  0
   -4.1091    1.8239   -2.6701 C   0  0  0  0  0  0  0  0  0  0  0  0
   -4.4208    3.0475   -3.2652 C   0  0  0  0  0  0  0  0  0  0  0  0
   -5.4832    3.1230   -4.1632 O   0  0  0  0  0  0  0  0  0  0  0  0
   -3.6664    4.1852   -2.9560 C   0  0  0  0  0  0  0  0  0  0  0  0
   -2.5961    4.1088   -2.0525 C   0  0  0  0  0  0  0  0  0  0  0  0
   -1.8611    5.2596   -1.7646 O   0  0  0  0  0  0  0  0  0  0  0  0
   -2.2762    2.8701   -1.4470 C   0  0  0  0  0  0  0  0  0  0  0  0
   -1.2129    2.7096   -0.5359 C   0  0  0  0  0  0  0  0  0  0  0  0
   -0.4793    3.6823   -0.2098 O   0  0  0  0  0  0  0  0  0  0  0  0
   -1.5806   -0.9947    0.2093 C   0  0  0  0  0  0  0  0  0  0  0  0
   -1.7037   -2.1045   -0.6376 C   0  0  0  0  0  0  0  0  0  0  0  0
   -1.4869   -3.4025   -0.1619 C   0  0  0  0  0  0  0  0  0  0  0  0
   -1.6153   -4.4556   -1.0701 O   0  0  0  0  0  0  0  0  0  0  0  0
   -1.1477   -3.6016    1.1982 C   0  0  0  0  0  0  0  0  0  0  0  0
   -0.9047   -4.8717    1.7276 O   0  0  0  0  0  0  0  0  0  0  0  0
   -1.0488   -2.4894    2.0542 C   0  0  0  0  0  0  0  0  0  0  0  0
   -0.7271   -2.6448    3.4027 O   0  0  0  0  0  0  0  0  0  0  0  0
   -1.2736   -1.2010    1.5629 C   0  0  0  0  0  0  0  0  0  0  0  0
    2.3333    0.7506    1.6568 C   0  0  2  0  0  0  0  0  0  0  0  0
    2.3123    1.9285    2.4214 O   0  0  0  0  0  0  0  0  0  0  0  0
    3.7812    0.4220    1.2274 C   0  0  1  0  0  0  0  0  0  0  0  0
    4.3342   -0.4914    2.1428 O   0  0  0  0  0  0  0  0  0  0  0  0
    3.8297   -0.1423   -0.2125 C   0  0  1  0  0  0  0  0  0  0  0  0
    4.9893   -0.9069   -0.4249 O   0  0  0  0  0  0  0  0  0  0  0  0
    3.4019   -4.0149    0.2403 H   0  0  0  0  0  0  0  0  0  0  0  0
    2.5382   -2.1864    1.2683 H   0  0  0  0  0  0  0  0  0  0  0  0
    1.5018   -2.7962   -0.0662 H   0  0  0  0  0  0  0  0  0  0  0  0
    2.6044   -1.1870   -1.6432 H   0  0  0  0  0  0  0  0  0  0  0  0
    1.7987    1.7474   -0.2099 H   0  0  0  0  0  0  0  0  0  0  0  0
   -4.6949    0.9451   -2.9103 H   0  0  0  0  0  0  0  0  0  0  0  0
   -5.7362    3.9953   -4.6128 H   0  0  0  0  0  0  0  0  0  0  0  0
   -3.9120    5.1323   -3.4200 H   0  0  0  0  0  0  0  0  0  0  0  0
   -2.0797    6.1524   -2.1913 H   0  0  0  0  0  0  0  0  0  0  0  0
   -1.9496   -1.9621   -1.6834 H   0  0  0  0  0  0  0  0  0  0  0  0
   -1.4892   -5.4285   -0.8316 H   0  0  0  0  0  0  0  0  0  0  0  0
   -0.9384   -5.7261    1.1910 H   0  0  0  0  0  0  0  0  0  0  0  0
   -0.5515   -3.5526    3.8161 H   0  0  0  0  0  0  0  0  0  0  0  0
   -1.2182   -0.3644    2.2476 H   0  0  0  0  0  0  0  0  0  0  0  0
    1.9156   -0.0875    2.2638 H   0  0  0  0  0  0  0  0  0  0  0  0
    2.6933    1.6983    3.3090 H   0  0  0  0  0  0  0  0  0  0  0  0
    4.3775    1.3667    1.2363 H   0  0  0  0  0  0  0  0  0  0  0  0
    5.3171   -0.3510    2.1399 H   0  0  0  0  0  0  0  0  0  0  0  0
    3.8472    0.7209   -0.9199 H   0  0  0  0  0  0  0  0  0  0  0  0
    5.7516   -0.2709   -0.4480 H   0  0  0  0  0  0  0  0  0  0  0  0
  1  2  1  0
  2  3  1  0
  3  4  1  0
  4  5  1  0
  5  6  1  0
  6  7  1  0
  7  8  2  0
  8  9  1  0
  9 10  1  0
 10 11  2  0
 11 12  1  0
 12 13  1  0
 12 14  2  0
 14 15  1  0
 15 16  1  0
 15 17  2  0
 17 18  1  0
 18 19  2  0
  8 20  1  0
 20 21  2  0
 21 22  1  0
 22 23  1  0
 22 24  2  0
 24 25  1  0
 24 26  1  0
 26 27  1  0
 26 28  2  0
  5 29  1  0
 29 30  1  0
 29 31  1  0
 31 32  1  0
 31 33  1  0
 33 34  1  0
 33  3  1  0
 18  7  1  0
 28 20  1  0
 17 10  1  0
  1 35  1  0
  2 36  1  0
  2 37  1  0
  3 38  1  6
  5 39  1  6
 11 40  1  0
 13 41  1  0
 14 42  1  0
 16 43  1  0
 21 44  1  0
 23 45  1  0
 25 46  1  0
 27 47  1  0
 28 48  1  0
 29 49  1  1
 30 50  1  0
 31 51  1  6
 32 52  1  0
 33 53  1  6
 34 54  1  0
M  END
>  <LIG_ID>  (196) 
195

>  <_smiles>  (196) 
OC[C@H]1O[C@@H](OC2=C(OC3=CC(O)=CC(O)=C3C2=O)C2=CC(O)=C(O)C(O)=C2)[C@H](O)[C@@H](O)[C@H]1O

>  <_name>  (196) 
Myricetin 3-O-galactoside

>  <_molecular_weight>  (196) 
480.376

>  <_formula>  (196) 
C21H20O13

>  <_logP>  (196) 
-0.8333000000000004

>  <_molecular_wt_calculated>  (196) 
480.37799999999993

>  <_havy_atom_count>  (196) 
34

>  <_hydrogen_acceptors>  (196) 
13

>  <_hydrogen_donors>  (196) 
9

>  <_rotatable_bonds>  (196) 
13

>  <_amide_bonds>  (196) 
0

>  <_ring_count>  (196) 
4

$$$$
Myricetin 3-O-glucoside
     RDKit          3D

 54 57  0  0  0  0  0  0  0  0999 V2000
   -5.4379    0.9476    2.2304 O   0  0  0  0  0  0  0  0  0  0  0  0
   -5.4665    1.5897    0.9830 C   0  0  0  0  0  0  0  0  0  0  0  0
   -4.9965    0.6498   -0.1387 C   0  0  1  0  0  0  0  0  0  0  0  0
   -3.6559    0.2679    0.1205 O   0  0  0  0  0  0  0  0  0  0  0  0
   -3.1176   -0.4399   -0.9834 C   0  0  1  0  0  0  0  0  0  0  0  0
   -1.7359   -0.6985   -0.7408 O   0  0  0  0  0  0  0  0  0  0  0  0
   -0.7115    0.2538   -0.5813 C   0  0  0  0  0  0  0  0  0  0  0  0
    0.5512   -0.2387   -0.2290 C   0  0  0  0  0  0  0  0  0  0  0  0
    1.6401    0.6238   -0.0298 C   0  0  0  0  0  0  0  0  0  0  0  0
    1.4645    1.9986   -0.2256 C   0  0  0  0  0  0  0  0  0  0  0  0
    0.2132    2.5137   -0.5824 C   0  0  0  0  0  0  0  0  0  0  0  0
    0.0547    3.8875   -0.7623 O   0  0  0  0  0  0  0  0  0  0  0  0
   -0.8829    1.6498   -0.7619 C   0  0  0  0  0  0  0  0  0  0  0  0
   -2.1210    2.1787   -1.1258 O   0  0  0  0  0  0  0  0  0  0  0  0
    2.9805    0.1036    0.3240 C   0  0  0  0  0  0  0  0  0  0  0  0
    3.1604   -0.9012    1.2942 C   0  0  0  0  0  0  0  0  0  0  0  0
    2.0638   -1.4105    1.9945 O   0  0  0  0  0  0  0  0  0  0  0  0
    4.4597   -1.3581    1.5644 C   0  0  0  0  0  0  0  0  0  0  0  0
    4.6321   -2.2653    2.4234 O   0  0  0  0  0  0  0  0  0  0  0  0
    5.5543   -0.7922    0.8789 C   0  0  0  0  0  0  0  0  0  0  0  0
    6.8948   -1.1933    1.0954 C   0  0  0  0  0  0  0  0  0  0  0  0
    7.2047   -2.1979    2.0132 O   0  0  0  0  0  0  0  0  0  0  0  0
    7.9303   -0.5746    0.3794 C   0  0  0  0  0  0  0  0  0  0  0  0
    7.6531    0.4347   -0.5454 C   0  0  0  0  0  0  0  0  0  0  0  0
    8.7000    1.0336   -1.2426 O   0  0  0  0  0  0  0  0  0  0  0  0
    6.3309    0.8348   -0.7640 C   0  0  0  0  0  0  0  0  0  0  0  0
    5.2846    0.2294   -0.0618 C   0  0  0  0  0  0  0  0  0  0  0  0
    4.0378    0.6245   -0.2920 O   0  0  0  0  0  0  0  0  0  0  0  0
   -3.8443   -1.7843   -1.1495 C   0  0  2  0  0  0  0  0  0  0  0  0
   -3.3171   -2.4633   -2.2598 O   0  0  0  0  0  0  0  0  0  0  0  0
   -5.3530   -1.5333   -1.3502 C   0  0  1  0  0  0  0  0  0  0  0  0
   -6.0643   -2.7461   -1.3797 O   0  0  0  0  0  0  0  0  0  0  0  0
   -5.9004   -0.6002   -0.2499 C   0  0  2  0  0  0  0  0  0  0  0  0
   -7.2116   -0.2093   -0.5688 O   0  0  0  0  0  0  0  0  0  0  0  0
   -4.4937    0.9589    2.5368 H   0  0  0  0  0  0  0  0  0  0  0  0
   -6.5044    1.9290    0.7800 H   0  0  0  0  0  0  0  0  0  0  0  0
   -4.8235    2.4996    1.0017 H   0  0  0  0  0  0  0  0  0  0  0  0
   -5.0565    1.2338   -1.0878 H   0  0  0  0  0  0  0  0  0  0  0  0
   -3.2103    0.1390   -1.9317 H   0  0  0  0  0  0  0  0  0  0  0  0
    0.6816   -1.3092   -0.1310 H   0  0  0  0  0  0  0  0  0  0  0  0
    2.2997    2.6756   -0.0901 H   0  0  0  0  0  0  0  0  0  0  0  0
    0.8266    4.5327   -0.6405 H   0  0  0  0  0  0  0  0  0  0  0  0
   -2.2728    3.1710   -1.2602 H   0  0  0  0  0  0  0  0  0  0  0  0
    2.1586   -2.1267    2.7046 H   0  0  0  0  0  0  0  0  0  0  0  0
    8.1599   -2.4938    2.1773 H   0  0  0  0  0  0  0  0  0  0  0  0
    8.9567   -0.8787    0.5425 H   0  0  0  0  0  0  0  0  0  0  0  0
    8.5334    1.7684   -1.9203 H   0  0  0  0  0  0  0  0  0  0  0  0
    6.1144    1.6165   -1.4818 H   0  0  0  0  0  0  0  0  0  0  0  0
   -3.6821   -2.3833   -0.2216 H   0  0  0  0  0  0  0  0  0  0  0  0
   -3.5617   -3.4196   -2.1537 H   0  0  0  0  0  0  0  0  0  0  0  0
   -5.4953   -1.0332   -2.3346 H   0  0  0  0  0  0  0  0  0  0  0  0
   -5.9329   -3.1941   -0.5032 H   0  0  0  0  0  0  0  0  0  0  0  0
   -5.8865   -1.1377    0.7280 H   0  0  0  0  0  0  0  0  0  0  0  0
   -7.8058   -0.9628   -0.3146 H   0  0  0  0  0  0  0  0  0  0  0  0
  1  2  1  0
  2  3  1  0
  3  4  1  0
  4  5  1  0
  5  6  1  0
  6  7  1  0
  7  8  2  0
  8  9  1  0
  9 10  2  0
 10 11  1  0
 11 12  1  0
 11 13  2  0
 13 14  1  0
  9 15  1  0
 15 16  2  0
 16 17  1  0
 16 18  1  0
 18 19  2  0
 18 20  1  0
 20 21  2  0
 21 22  1  0
 21 23  1  0
 23 24  2  0
 24 25  1  0
 24 26  1  0
 26 27  2  0
 27 28  1  0
  5 29  1  0
 29 30  1  0
 29 31  1  0
 31 32  1  0
 31 33  1  0
 33 34  1  0
 33  3  1  0
 13  7  1  0
 28 15  1  0
 27 20  1  0
  1 35  1  0
  2 36  1  0
  2 37  1  0
  3 38  1  6
  5 39  1  6
  8 40  1  0
 10 41  1  0
 12 42  1  0
 14 43  1  0
 17 44  1  0
 22 45  1  0
 23 46  1  0
 25 47  1  0
 26 48  1  0
 29 49  1  1
 30 50  1  0
 31 51  1  6
 32 52  1  0
 33 53  1  1
 34 54  1  0
M  END
>  <LIG_ID>  (197) 
196

>  <_smiles>  (197) 
OC[C@H]1O[C@@H](OC2=CC(=CC(O)=C2O)C2=C(O)C(=O)C3=C(O)C=C(O)C=C3O2)[C@H](O)[C@@H](O)[C@@H]1O

>  <_name>  (197) 
Myricetin 3-O-glucoside

>  <_molecular_weight>  (197) 
480.376

>  <_formula>  (197) 
C21H20O13

>  <_logP>  (197) 
-0.8333000000000004

>  <_molecular_wt_calculated>  (197) 
480.37799999999993

>  <_havy_atom_count>  (197) 
34

>  <_hydrogen_acceptors>  (197) 
13

>  <_hydrogen_donors>  (197) 
9

>  <_rotatable_bonds>  (197) 
13

>  <_amide_bonds>  (197) 
0

>  <_ring_count>  (197) 
4

$$$$
Quercetin 3-O-glucosyl-xyloside
     RDKit          3D

 70 74  0  0  0  0  0  0  0  0999 V2000
   -5.4633   -1.7808   -1.4641 C   0  0  1  0  0  0  0  0  0  0  0  0
   -6.4671   -0.9643   -2.2937 C   0  0  0  0  0  0  0  0  0  0  0  0
   -5.9326   -0.7108   -3.5635 O   0  0  0  0  0  0  0  0  0  0  0  0
   -4.2389   -1.0774   -1.4063 O   0  0  0  0  0  0  0  0  0  0  0  0
   -4.0002   -0.7161   -0.0605 C   0  0  1  0  0  0  0  0  0  0  0  0
   -3.6456    0.6521    0.0146 O   0  0  0  0  0  0  0  0  0  0  0  0
   -2.2865    0.8472   -0.3324 C   0  0  0  0  0  0  0  0  0  0  0  0
   -1.3884    0.8478    0.9169 C   0  0  1  0  0  0  0  0  0  0  0  0
   -0.0409    0.8962    0.4821 O   0  0  0  0  0  0  0  0  0  0  0  0
    0.8418    0.7305    1.5782 C   0  0  1  0  0  0  0  0  0  0  0  0
    2.1788    0.6406    1.0894 O   0  0  0  0  0  0  0  0  0  0  0  0
    2.6639   -0.2542    0.1143 C   0  0  0  0  0  0  0  0  0  0  0  0
    3.9243    0.0056   -0.4565 C   0  0  0  0  0  0  0  0  0  0  0  0
    4.4518   -0.8483   -1.3246 O   0  0  0  0  0  0  0  0  0  0  0  0
    3.8296   -1.9404   -1.7464 C   0  0  0  0  0  0  0  0  0  0  0  0
    4.4889   -2.7794   -2.6483 C   0  0  0  0  0  0  0  0  0  0  0  0
    3.8757   -3.9418   -3.1098 C   0  0  0  0  0  0  0  0  0  0  0  0
    4.5596   -4.7763   -3.9913 O   0  0  0  0  0  0  0  0  0  0  0  0
    2.5789   -4.2539   -2.6940 C   0  0  0  0  0  0  0  0  0  0  0  0
    1.8795   -3.4110   -1.8216 C   0  0  0  0  0  0  0  0  0  0  0  0
    0.5501   -3.7503   -1.5535 O   0  0  0  0  0  0  0  0  0  0  0  0
    2.5260   -2.2557   -1.2889 C   0  0  0  0  0  0  0  0  0  0  0  0
    1.9717   -1.4188   -0.2912 C   0  0  0  0  0  0  0  0  0  0  0  0
    0.8970   -1.7350    0.2796 O   0  0  0  0  0  0  0  0  0  0  0  0
    4.7108    1.2092   -0.1006 C   0  0  0  0  0  0  0  0  0  0  0  0
    4.1105    2.4791   -0.0247 C   0  0  0  0  0  0  0  0  0  0  0  0
    4.8733    3.6094    0.3025 C   0  0  0  0  0  0  0  0  0  0  0  0
    4.2674    4.8619    0.3886 O   0  0  0  0  0  0  0  0  0  0  0  0
    6.2518    3.4765    0.5392 C   0  0  0  0  0  0  0  0  0  0  0  0
    7.0370    4.5806    0.8692 O   0  0  0  0  0  0  0  0  0  0  0  0
    6.8546    2.2187    0.4399 C   0  0  0  0  0  0  0  0  0  0  0  0
    6.0926    1.0934    0.1155 C   0  0  0  0  0  0  0  0  0  0  0  0
    0.7441    1.9455    2.5133 C   0  0  2  0  0  0  0  0  0  0  0  0
    1.6214    1.7698    3.5958 O   0  0  0  0  0  0  0  0  0  0  0  0
   -0.7002    2.0911    3.0227 C   0  0  1  0  0  0  0  0  0  0  0  0
   -0.8261    3.3025    3.7218 O   0  0  0  0  0  0  0  0  0  0  0  0
   -1.6895    2.0610    1.8375 C   0  0  2  0  0  0  0  0  0  0  0  0
   -3.0154    2.0351    2.3067 O   0  0  0  0  0  0  0  0  0  0  0  0
   -5.2697   -0.9514    0.7415 C   0  0  2  0  0  0  0  0  0  0  0  0
   -4.9677   -1.3455    2.0543 O   0  0  0  0  0  0  0  0  0  0  0  0
   -5.9321   -2.0557   -0.0306 C   0  0  1  0  0  0  0  0  0  0  0  0
   -7.3274   -2.0088    0.1218 O   0  0  0  0  0  0  0  0  0  0  0  0
   -5.2940   -2.7515   -1.9800 H   0  0  0  0  0  0  0  0  0  0  0  0
   -6.6825   -0.0002   -1.7801 H   0  0  0  0  0  0  0  0  0  0  0  0
   -7.4151   -1.5364   -2.4054 H   0  0  0  0  0  0  0  0  0  0  0  0
   -6.6130   -0.1734   -4.0466 H   0  0  0  0  0  0  0  0  0  0  0  0
   -3.1980   -1.3794    0.3445 H   0  0  0  0  0  0  0  0  0  0  0  0
   -1.9143    0.0930   -1.0667 H   0  0  0  0  0  0  0  0  0  0  0  0
   -2.1976    1.8305   -0.8418 H   0  0  0  0  0  0  0  0  0  0  0  0
   -1.5768   -0.1009    1.4712 H   0  0  0  0  0  0  0  0  0  0  0  0
    0.6131   -0.1939    2.1580 H   0  0  0  0  0  0  0  0  0  0  0  0
    5.4890   -2.5319   -2.9829 H   0  0  0  0  0  0  0  0  0  0  0  0
    4.1409   -5.6273   -4.3482 H   0  0  0  0  0  0  0  0  0  0  0  0
    2.0937   -5.1425   -3.0789 H   0  0  0  0  0  0  0  0  0  0  0  0
   -0.1480   -3.1014   -1.2208 H   0  0  0  0  0  0  0  0  0  0  0  0
    3.0559    2.5994   -0.2389 H   0  0  0  0  0  0  0  0  0  0  0  0
    3.2747    4.9838    0.2247 H   0  0  0  0  0  0  0  0  0  0  0  0
    6.6477    5.5120    0.9525 H   0  0  0  0  0  0  0  0  0  0  0  0
    7.9177    2.1131    0.6153 H   0  0  0  0  0  0  0  0  0  0  0  0
    6.5796    0.1282    0.0467 H   0  0  0  0  0  0  0  0  0  0  0  0
    1.0291    2.8564    1.9334 H   0  0  0  0  0  0  0  0  0  0  0  0
    1.7852    2.6696    3.9819 H   0  0  0  0  0  0  0  0  0  0  0  0
   -0.9145    1.2346    3.7064 H   0  0  0  0  0  0  0  0  0  0  0  0
   -1.6318    3.2209    4.2960 H   0  0  0  0  0  0  0  0  0  0  0  0
   -1.5519    2.9939    1.2466 H   0  0  0  0  0  0  0  0  0  0  0  0
   -3.1408    1.1867    2.8075 H   0  0  0  0  0  0  0  0  0  0  0  0
   -5.9034   -0.0318    0.7379 H   0  0  0  0  0  0  0  0  0  0  0  0
   -5.8233   -1.3235    2.5571 H   0  0  0  0  0  0  0  0  0  0  0  0
   -5.5348   -3.0421    0.3107 H   0  0  0  0  0  0  0  0  0  0  0  0
   -7.6765   -2.8635   -0.2427 H   0  0  0  0  0  0  0  0  0  0  0  0
  1  2  1  0
  2  3  1  0
  1  4  1  0
  4  5  1  0
  5  6  1  0
  6  7  1  0
  7  8  1  0
  8  9  1  0
  9 10  1  0
 10 11  1  0
 11 12  1  0
 12 13  2  0
 13 14  1  0
 14 15  1  0
 15 16  2  0
 16 17  1  0
 17 18  1  0
 17 19  2  0
 19 20  1  0
 20 21  1  0
 20 22  2  0
 22 23  1  0
 23 24  2  0
 13 25  1  0
 25 26  2  0
 26 27  1  0
 27 28  1  0
 27 29  2  0
 29 30  1  0
 29 31  1  0
 31 32  2  0
 10 33  1  0
 33 34  1  0
 33 35  1  0
 35 36  1  0
 35 37  1  0
 37 38  1  0
  5 39  1  0
 39 40  1  0
 39 41  1  0
 41 42  1  0
 41  1  1  0
 37  8  1  0
 23 12  1  0
 32 25  1  0
 22 15  1  0
  1 43  1  6
  2 44  1  0
  2 45  1  0
  3 46  1  0
  5 47  1  1
  7 48  1  0
  7 49  1  0
  8 50  1  1
 10 51  1  1
 16 52  1  0
 18 53  1  0
 19 54  1  0
 21 55  1  0
 26 56  1  0
 28 57  1  0
 30 58  1  0
 31 59  1  0
 32 60  1  0
 33 61  1  6
 34 62  1  0
 35 63  1  1
 36 64  1  0
 37 65  1  6
 38 66  1  0
 39 67  1  1
 40 68  1  0
 41 69  1  1
 42 70  1  0
M  END
>  <LIG_ID>  (198) 
197

>  <_smiles>  (198) 
[H][C@]1(CO)O[C@@]([H])(OC[C@@]2([H])O[C@@]([H])(OC3=C(OC4=CC(O)=CC(O)=C4C3=O)C3=CC(O)=C(O)C=C3)[C@]([H])(O)[C@@]([H])(O)[C@]2([H])O)[C@]([H])(O)[C@@]1([H])O

>  <_name>  (198) 
Quercetin 3-O-glucosyl-xyloside

>  <_molecular_weight>  (198) 
596.491

>  <_formula>  (198) 
C26H28O16

>  <_logP>  (198) 
-2.075600000000001

>  <_molecular_wt_calculated>  (198) 
596.4940000000014

>  <_havy_atom_count>  (198) 
42

>  <_hydrogen_acceptors>  (198) 
16

>  <_hydrogen_donors>  (198) 
10

>  <_rotatable_bonds>  (198) 
17

>  <_amide_bonds>  (198) 
0

>  <_ring_count>  (198) 
5

$$$$
Quercetin 3-O-acetyl-rhamnoside
     RDKit          3D

 57 60  0  0  0  0  0  0  0  0999 V2000
   -2.6825    1.9003   -1.9983 C   0  0  2  0  0  0  0  0  0  0  0  0
   -2.0795    1.5789   -3.3712 C   0  0  0  0  0  0  0  0  0  0  0  0
   -1.6640    2.3457   -1.1059 O   0  0  0  0  0  0  0  0  0  0  0  0
   -1.0988    1.2738   -0.3777 C   0  0  1  0  0  0  0  0  0  0  0  0
    0.0742    1.7387    0.2906 O   0  0  0  0  0  0  0  0  0  0  0  0
    1.0134    0.8587    0.8438 C   0  0  0  0  0  0  0  0  0  0  0  0
    1.8195    0.0329    0.0362 C   0  0  0  0  0  0  0  0  0  0  0  0
    2.6352   -0.8460    0.6064 O   0  0  0  0  0  0  0  0  0  0  0  0
    2.7482   -0.9934    1.9214 C   0  0  0  0  0  0  0  0  0  0  0  0
    3.6545   -1.9363    2.4119 C   0  0  0  0  0  0  0  0  0  0  0  0
    3.8187   -2.1102    3.7868 C   0  0  0  0  0  0  0  0  0  0  0  0
    4.7360   -3.0349    4.2812 O   0  0  0  0  0  0  0  0  0  0  0  0
    3.0520   -1.3588    4.6764 C   0  0  0  0  0  0  0  0  0  0  0  0
    2.1077   -0.4336    4.2148 C   0  0  0  0  0  0  0  0  0  0  0  0
    1.3210    0.1922    5.1863 O   0  0  0  0  0  0  0  0  0  0  0  0
    1.9755   -0.2037    2.8127 C   0  0  0  0  0  0  0  0  0  0  0  0
    1.1320    0.7740    2.2350 C   0  0  0  0  0  0  0  0  0  0  0  0
    0.4799    1.5866    2.9411 O   0  0  0  0  0  0  0  0  0  0  0  0
    1.7968    0.1068   -1.4422 C   0  0  0  0  0  0  0  0  0  0  0  0
    1.7632    1.3431   -2.1123 C   0  0  0  0  0  0  0  0  0  0  0  0
    1.7099    1.3914   -3.5124 C   0  0  0  0  0  0  0  0  0  0  0  0
    1.6546    2.6167   -4.1742 O   0  0  0  0  0  0  0  0  0  0  0  0
    1.7108    0.2027   -4.2524 C   0  0  0  0  0  0  0  0  0  0  0  0
    1.6522    0.2544   -5.6438 O   0  0  0  0  0  0  0  0  0  0  0  0
    1.7723   -1.0302   -3.5899 C   0  0  0  0  0  0  0  0  0  0  0  0
    1.8210   -1.0779   -2.1943 C   0  0  0  0  0  0  0  0  0  0  0  0
   -2.1118    0.7393    0.6557 C   0  0  2  0  0  0  0  0  0  0  0  0
   -1.7169   -0.5855    1.0244 O   0  0  0  0  0  0  0  0  0  0  0  0
   -1.9268   -1.1345    2.2942 C   0  0  0  0  0  0  0  0  0  0  0  0
   -1.3526   -2.4715    2.6156 C   0  0  0  0  0  0  0  0  0  0  0  0
   -2.5448   -0.4898    3.1844 O   0  0  0  0  0  0  0  0  0  0  0  0
   -3.5561    0.7664    0.0905 C   0  0  2  0  0  0  0  0  0  0  0  0
   -4.3037   -0.3081    0.6029 O   0  0  0  0  0  0  0  0  0  0  0  0
   -3.5416    0.7197   -1.4472 C   0  0  1  0  0  0  0  0  0  0  0  0
   -4.8569    0.8100   -1.9324 O   0  0  0  0  0  0  0  0  0  0  0  0
   -3.3644    2.7669   -2.1442 H   0  0  0  0  0  0  0  0  0  0  0  0
   -1.4173    0.6896   -3.3189 H   0  0  0  0  0  0  0  0  0  0  0  0
   -2.8859    1.3800   -4.1081 H   0  0  0  0  0  0  0  0  0  0  0  0
   -1.4822    2.4435   -3.7307 H   0  0  0  0  0  0  0  0  0  0  0  0
   -0.8133    0.4517   -1.0718 H   0  0  0  0  0  0  0  0  0  0  0  0
    4.2423   -2.5266    1.7195 H   0  0  0  0  0  0  0  0  0  0  0  0
    5.3063   -3.5988    3.6618 H   0  0  0  0  0  0  0  0  0  0  0  0
    3.1669   -1.5190    5.7414 H   0  0  0  0  0  0  0  0  0  0  0  0
    0.4365    0.6428    5.0076 H   0  0  0  0  0  0  0  0  0  0  0  0
    1.7828    2.2692   -1.5520 H   0  0  0  0  0  0  0  0  0  0  0  0
    1.6458    3.4935   -3.6664 H   0  0  0  0  0  0  0  0  0  0  0  0
    1.6509   -0.5889   -6.2058 H   0  0  0  0  0  0  0  0  0  0  0  0
    1.7775   -1.9530   -4.1559 H   0  0  0  0  0  0  0  0  0  0  0  0
    1.8557   -2.0410   -1.6998 H   0  0  0  0  0  0  0  0  0  0  0  0
   -2.0731    1.4046    1.5482 H   0  0  0  0  0  0  0  0  0  0  0  0
   -1.2141   -3.0581    1.6834 H   0  0  0  0  0  0  0  0  0  0  0  0
   -2.0346   -3.0276    3.2928 H   0  0  0  0  0  0  0  0  0  0  0  0
   -0.3683   -2.3401    3.1116 H   0  0  0  0  0  0  0  0  0  0  0  0
   -4.0248    1.7304    0.4048 H   0  0  0  0  0  0  0  0  0  0  0  0
   -5.2610   -0.0522    0.5421 H   0  0  0  0  0  0  0  0  0  0  0  0
   -3.0965   -0.2583   -1.7515 H   0  0  0  0  0  0  0  0  0  0  0  0
   -4.8417    0.4735   -2.8660 H   0  0  0  0  0  0  0  0  0  0  0  0
  1  2  1  0
  1  3  1  0
  3  4  1  0
  4  5  1  0
  5  6  1  0
  6  7  2  0
  7  8  1  0
  8  9  1  0
  9 10  2  0
 10 11  1  0
 11 12  1  0
 11 13  2  0
 13 14  1  0
 14 15  1  0
 14 16  2  0
 16 17  1  0
 17 18  2  0
  7 19  1  0
 19 20  2  0
 20 21  1  0
 21 22  1  0
 21 23  2  0
 23 24  1  0
 23 25  1  0
 25 26  2  0
  4 27  1  0
 27 28  1  0
 28 29  1  0
 29 30  1  0
 29 31  2  0
 27 32  1  0
 32 33  1  0
 32 34  1  0
 34 35  1  0
 34  1  1  0
 17  6  1  0
 26 19  1  0
 16  9  1  0
  1 36  1  6
  2 37  1  0
  2 38  1  0
  2 39  1  0
  4 40  1  6
 10 41  1  0
 12 42  1  0
 13 43  1  0
 15 44  1  0
 20 45  1  0
 22 46  1  0
 24 47  1  0
 25 48  1  0
 26 49  1  0
 27 50  1  1
 30 51  1  0
 30 52  1  0
 30 53  1  0
 32 54  1  6
 33 55  1  0
 34 56  1  1
 35 57  1  0
M  END
>  <LIG_ID>  (199) 
198

>  <_smiles>  (199) 
[H][C@@]1(C)O[C@@]([H])(OC2=C(OC3=CC(O)=CC(O)=C3C2=O)C2=CC(O)=C(O)C=C2)[C@]([H])(OC(C)=O)[C@]([H])(O)[C@@]1([H])O

>  <_name>  (199) 
Quercetin 3-O-acetyl-rhamnoside

>  <_molecular_weight>  (199) 
490.414

>  <_formula>  (199) 
C23H22O12

>  <_logP>  (199) 
1.0595

>  <_molecular_wt_calculated>  (199) 
490.4169999999999

>  <_havy_atom_count>  (199) 
35

>  <_hydrogen_acceptors>  (199) 
12

>  <_hydrogen_donors>  (199) 
6

>  <_rotatable_bonds>  (199) 
12

>  <_amide_bonds>  (199) 
0

>  <_ring_count>  (199) 
4

$$$$
Kaempferol 3-O-galactoside
     RDKit          3D

 52 55  0  0  0  0  0  0  0  0999 V2000
    4.8260   -2.2898    1.8611 O   0  0  0  0  0  0  0  0  0  0  0  0
    3.5362   -1.7395    1.9113 C   0  0  0  0  0  0  0  0  0  0  0  0
    3.2969   -0.8012    0.7200 C   0  0  1  0  0  0  0  0  0  0  0  0
    1.9455   -0.3732    0.7479 O   0  0  0  0  0  0  0  0  0  0  0  0
    1.6181    0.3112   -0.4505 C   0  0  0  0  0  0  0  0  0  0  0  0
    0.2315    0.6434   -0.4326 O   0  0  0  0  0  0  0  0  0  0  0  0
   -0.8640   -0.2443   -0.4106 C   0  0  0  0  0  0  0  0  0  0  0  0
   -2.1517    0.3032   -0.2568 C   0  0  0  0  0  0  0  0  0  0  0  0
   -3.2188   -0.4843   -0.2748 O   0  0  0  0  0  0  0  0  0  0  0  0
   -3.1562   -1.7988   -0.4316 C   0  0  0  0  0  0  0  0  0  0  0  0
   -4.3459   -2.5304   -0.3969 C   0  0  0  0  0  0  0  0  0  0  0  0
   -4.3279   -3.9157   -0.5334 C   0  0  0  0  0  0  0  0  0  0  0  0
   -5.5235   -4.6283   -0.4721 O   0  0  0  0  0  0  0  0  0  0  0  0
   -3.1145   -4.5760   -0.7391 C   0  0  0  0  0  0  0  0  0  0  0  0
   -1.9108   -3.8652   -0.8210 C   0  0  0  0  0  0  0  0  0  0  0  0
   -0.7695   -4.6108   -1.1317 O   0  0  0  0  0  0  0  0  0  0  0  0
   -1.9114   -2.4508   -0.6185 C   0  0  0  0  0  0  0  0  0  0  0  0
   -0.7460   -1.6466   -0.5620 C   0  0  0  0  0  0  0  0  0  0  0  0
    0.3934   -2.1727   -0.6206 O   0  0  0  0  0  0  0  0  0  0  0  0
   -2.3678    1.7569   -0.0751 C   0  0  0  0  0  0  0  0  0  0  0  0
   -3.4093    2.3932   -0.7702 C   0  0  0  0  0  0  0  0  0  0  0  0
   -3.6419    3.7613   -0.5997 C   0  0  0  0  0  0  0  0  0  0  0  0
   -2.8480    4.5063    0.2776 C   0  0  0  0  0  0  0  0  0  0  0  0
   -3.0900    5.8689    0.4362 O   0  0  0  0  0  0  0  0  0  0  0  0
   -1.8211    3.8750    0.9914 C   0  0  0  0  0  0  0  0  0  0  0  0
   -1.5864    2.5071    0.8232 C   0  0  0  0  0  0  0  0  0  0  0  0
    2.4293    1.6193   -0.5505 C   0  0  2  0  0  0  0  0  0  0  0  0
    2.1130    2.3159   -1.7305 O   0  0  0  0  0  0  0  0  0  0  0  0
    3.9414    1.3164   -0.4745 C   0  0  1  0  0  0  0  0  0  0  0  0
    4.6740    2.5105   -0.3746 O   0  0  0  0  0  0  0  0  0  0  0  0
    4.2431    0.4247    0.7415 C   0  0  1  0  0  0  0  0  0  0  0  0
    4.0565    1.1659    1.9233 O   0  0  0  0  0  0  0  0  0  0  0  0
    5.4155   -1.6934    2.3919 H   0  0  0  0  0  0  0  0  0  0  0  0
    3.3582   -1.2118    2.8768 H   0  0  0  0  0  0  0  0  0  0  0  0
    2.8037   -2.5730    1.8581 H   0  0  0  0  0  0  0  0  0  0  0  0
    3.4952   -1.4013   -0.2002 H   0  0  0  0  0  0  0  0  0  0  0  0
    1.8246   -0.3153   -1.3492 H   0  0  0  0  0  0  0  0  0  0  0  0
   -5.2891   -2.0192   -0.2469 H   0  0  0  0  0  0  0  0  0  0  0  0
   -5.5453   -5.6367   -0.5702 H   0  0  0  0  0  0  0  0  0  0  0  0
   -3.1078   -5.6510   -0.8712 H   0  0  0  0  0  0  0  0  0  0  0  0
    0.0785   -4.2293   -1.5230 H   0  0  0  0  0  0  0  0  0  0  0  0
   -4.0344    1.8327   -1.4549 H   0  0  0  0  0  0  0  0  0  0  0  0
   -4.4408    4.2428   -1.1492 H   0  0  0  0  0  0  0  0  0  0  0  0
   -2.5332    6.4357    1.0652 H   0  0  0  0  0  0  0  0  0  0  0  0
   -1.2101    4.4411    1.6829 H   0  0  0  0  0  0  0  0  0  0  0  0
   -0.8098    2.0340    1.4106 H   0  0  0  0  0  0  0  0  0  0  0  0
    2.1526    2.2665    0.3115 H   0  0  0  0  0  0  0  0  0  0  0  0
    2.3532    1.7335   -2.4982 H   0  0  0  0  0  0  0  0  0  0  0  0
    4.2540    0.7608   -1.3912 H   0  0  0  0  0  0  0  0  0  0  0  0
    4.7052    2.9058   -1.2848 H   0  0  0  0  0  0  0  0  0  0  0  0
    5.3023    0.0829    0.6557 H   0  0  0  0  0  0  0  0  0  0  0  0
    4.7271    0.8436    2.5803 H   0  0  0  0  0  0  0  0  0  0  0  0
  1  2  1  0
  2  3  1  0
  3  4  1  0
  4  5  1  0
  5  6  1  0
  6  7  1  0
  7  8  2  0
  8  9  1  0
  9 10  1  0
 10 11  2  0
 11 12  1  0
 12 13  1  0
 12 14  2  0
 14 15  1  0
 15 16  1  0
 15 17  2  0
 17 18  1  0
 18 19  2  0
  8 20  1  0
 20 21  2  0
 21 22  1  0
 22 23  2  0
 23 24  1  0
 23 25  1  0
 25 26  2  0
  5 27  1  0
 27 28  1  0
 27 29  1  0
 29 30  1  0
 29 31  1  0
 31 32  1  0
 31  3  1  0
 18  7  1  0
 26 20  1  0
 17 10  1  0
  1 33  1  0
  2 34  1  0
  2 35  1  0
  3 36  1  6
  5 37  1  0
 11 38  1  0
 13 39  1  0
 14 40  1  0
 16 41  1  0
 21 42  1  0
 22 43  1  0
 24 44  1  0
 25 45  1  0
 26 46  1  0
 27 47  1  1
 28 48  1  0
 29 49  1  6
 30 50  1  0
 31 51  1  6
 32 52  1  0
M  END
>  <LIG_ID>  (200) 
199

>  <_smiles>  (200) 
OC[C@H]1OC(OC2=C(OC3=CC(O)=CC(O)=C3C2=O)C2=CC=C(O)C=C2)[C@H](O)[C@@H](O)[C@H]1O

>  <_name>  (200) 
Kaempferol 3-O-galactoside

>  <_molecular_weight>  (200) 
448.377

>  <_formula>  (200) 
C21H20O11

>  <_logP>  (200) 
-0.24450000000000038

>  <_molecular_wt_calculated>  (200) 
448.3799999999999

>  <_havy_atom_count>  (200) 
32

>  <_hydrogen_acceptors>  (200) 
11

>  <_hydrogen_donors>  (200) 
7

>  <_rotatable_bonds>  (200) 
11

>  <_amide_bonds>  (200) 
0

>  <_ring_count>  (200) 
4

$$$$
Galangin
     RDKit          3D

 30 32  0  0  0  0  0  0  0  0999 V2000
   -4.2142    3.0612    0.4098 O   0  0  0  0  0  0  0  0  0  0  0  0
   -3.4947    1.8796    0.2453 C   0  0  0  0  0  0  0  0  0  0  0  0
   -4.1796    0.6733    0.0834 C   0  0  0  0  0  0  0  0  0  0  0  0
   -3.4792   -0.5304   -0.0850 C   0  0  0  0  0  0  0  0  0  0  0  0
   -4.1928   -1.7189   -0.2454 O   0  0  0  0  0  0  0  0  0  0  0  0
   -2.0633   -0.5240   -0.0904 C   0  0  0  0  0  0  0  0  0  0  0  0
   -1.3796    0.7031    0.0767 C   0  0  0  0  0  0  0  0  0  0  0  0
   -0.0522    0.7421    0.0820 O   0  0  0  0  0  0  0  0  0  0  0  0
    0.7116   -0.3370   -0.0625 C   0  0  0  0  0  0  0  0  0  0  0  0
    0.1130   -1.5965   -0.2597 C   0  0  0  0  0  0  0  0  0  0  0  0
    0.9037   -2.7276   -0.4779 O   0  0  0  0  0  0  0  0  0  0  0  0
   -1.2876   -1.6887   -0.2629 C   0  0  0  0  0  0  0  0  0  0  0  0
   -1.8348   -2.8131   -0.4276 O   0  0  0  0  0  0  0  0  0  0  0  0
    2.1813   -0.1611   -0.0271 C   0  0  0  0  0  0  0  0  0  0  0  0
    2.7602    0.9512   -0.6622 C   0  0  0  0  0  0  0  0  0  0  0  0
    4.1439    1.1484   -0.6216 C   0  0  0  0  0  0  0  0  0  0  0  0
    4.9603    0.2462    0.0647 C   0  0  0  0  0  0  0  0  0  0  0  0
    4.3935   -0.8507    0.7181 C   0  0  0  0  0  0  0  0  0  0  0  0
    3.0102   -1.0527    0.6796 C   0  0  0  0  0  0  0  0  0  0  0  0
   -2.0961    1.8922    0.2415 C   0  0  0  0  0  0  0  0  0  0  0  0
   -3.7482    3.9530    0.5297 H   0  0  0  0  0  0  0  0  0  0  0  0
   -5.2625    0.6722    0.0879 H   0  0  0  0  0  0  0  0  0  0  0  0
   -5.2060   -1.7367   -0.2435 H   0  0  0  0  0  0  0  0  0  0  0  0
    0.5058   -3.6462   -0.6323 H   0  0  0  0  0  0  0  0  0  0  0  0
    2.1418    1.6603   -1.1990 H   0  0  0  0  0  0  0  0  0  0  0  0
    4.5831    2.0022   -1.1212 H   0  0  0  0  0  0  0  0  0  0  0  0
    6.0310    0.4015    0.0969 H   0  0  0  0  0  0  0  0  0  0  0  0
    5.0254   -1.5405    1.2625 H   0  0  0  0  0  0  0  0  0  0  0  0
    2.5894   -1.8891    1.2225 H   0  0  0  0  0  0  0  0  0  0  0  0
   -1.5636    2.8268    0.3681 H   0  0  0  0  0  0  0  0  0  0  0  0
  1  2  1  0
  2  3  2  0
  3  4  1  0
  4  5  1  0
  4  6  2  0
  6  7  1  0
  7  8  1  0
  8  9  1  0
  9 10  2  0
 10 11  1  0
 10 12  1  0
 12 13  2  0
  9 14  1  0
 14 15  2  0
 15 16  1  0
 16 17  2  0
 17 18  1  0
 18 19  2  0
  7 20  2  0
 20  2  1  0
 12  6  1  0
 19 14  1  0
  1 21  1  0
  3 22  1  0
  5 23  1  0
 11 24  1  0
 15 25  1  0
 16 26  1  0
 17 27  1  0
 18 28  1  0
 19 29  1  0
 20 30  1  0
M  END
>  <LIG_ID>  (201) 
200

>  <_smiles>  (201) 
OC1=CC(O)=C2C(OC(=C(O)C2=O)C2=CC=CC=C2)=C1

>  <_name>  (201) 
Galangin

>  <_molecular_weight>  (201) 
270.237

>  <_formula>  (201) 
C15H10O5

>  <_logP>  (201) 
2.5768000000000004

>  <_molecular_wt_calculated>  (201) 
270.2399999999998

>  <_havy_atom_count>  (201) 
20

>  <_hydrogen_acceptors>  (201) 
5

>  <_hydrogen_donors>  (201) 
3

>  <_rotatable_bonds>  (201) 
4

>  <_amide_bonds>  (201) 
0

>  <_ring_count>  (201) 
3

$$$$
Isorhamnetin
     RDKit          3D

 35 37  0  0  0  0  0  0  0  0999 V2000
    3.8457    2.4117    1.5162 C   0  0  0  0  0  0  0  0  0  0  0  0
    4.3692    1.4466    0.6095 O   0  0  0  0  0  0  0  0  0  0  0  0
    3.5893    0.5475   -0.1355 C   0  0  0  0  0  0  0  0  0  0  0  0
    4.2347   -0.3585   -0.9964 C   0  0  0  0  0  0  0  0  0  0  0  0
    5.6241   -0.3716   -1.1187 O   0  0  0  0  0  0  0  0  0  0  0  0
    3.4834   -1.2697   -1.7439 C   0  0  0  0  0  0  0  0  0  0  0  0
    2.0910   -1.2851   -1.6493 C   0  0  0  0  0  0  0  0  0  0  0  0
    1.4268   -0.3748   -0.8111 C   0  0  0  0  0  0  0  0  0  0  0  0
    2.1829    0.5267   -0.0443 C   0  0  0  0  0  0  0  0  0  0  0  0
   -0.0477   -0.3892   -0.6749 C   0  0  0  0  0  0  0  0  0  0  0  0
   -0.9008   -0.5172   -1.7880 C   0  0  0  0  0  0  0  0  0  0  0  0
   -0.3709   -0.5895   -3.0789 O   0  0  0  0  0  0  0  0  0  0  0  0
   -2.2887   -0.5406   -1.5797 C   0  0  0  0  0  0  0  0  0  0  0  0
   -3.0622   -0.6658   -2.5679 O   0  0  0  0  0  0  0  0  0  0  0  0
   -2.7994   -0.4160   -0.2713 C   0  0  0  0  0  0  0  0  0  0  0  0
   -4.1842   -0.4260    0.0236 C   0  0  0  0  0  0  0  0  0  0  0  0
   -5.1332   -0.5717   -0.9890 O   0  0  0  0  0  0  0  0  0  0  0  0
   -4.6134   -0.2874    1.3519 C   0  0  0  0  0  0  0  0  0  0  0  0
   -3.6854   -0.1385    2.3889 C   0  0  0  0  0  0  0  0  0  0  0  0
   -4.1114    0.0002    3.7081 O   0  0  0  0  0  0  0  0  0  0  0  0
   -2.3194   -0.1287    2.1028 C   0  0  0  0  0  0  0  0  0  0  0  0
   -1.8713   -0.2671    0.7859 C   0  0  0  0  0  0  0  0  0  0  0  0
   -0.5657   -0.2593    0.5431 O   0  0  0  0  0  0  0  0  0  0  0  0
    3.2866    1.9060    2.3316 H   0  0  0  0  0  0  0  0  0  0  0  0
    4.6856    2.9822    1.9627 H   0  0  0  0  0  0  0  0  0  0  0  0
    3.1813    3.1205    0.9781 H   0  0  0  0  0  0  0  0  0  0  0  0
    6.2179    0.2647   -0.6005 H   0  0  0  0  0  0  0  0  0  0  0  0
    3.9828   -1.9757   -2.3954 H   0  0  0  0  0  0  0  0  0  0  0  0
    1.5376   -2.0252   -2.2128 H   0  0  0  0  0  0  0  0  0  0  0  0
    1.6685    1.2164    0.6118 H   0  0  0  0  0  0  0  0  0  0  0  0
   -0.9558   -0.6727   -3.9016 H   0  0  0  0  0  0  0  0  0  0  0  0
   -6.1271   -0.5803   -0.7911 H   0  0  0  0  0  0  0  0  0  0  0  0
   -5.6723   -0.2948    1.5786 H   0  0  0  0  0  0  0  0  0  0  0  0
   -5.0954   -0.0029    3.9503 H   0  0  0  0  0  0  0  0  0  0  0  0
   -1.6030   -0.0145    2.9071 H   0  0  0  0  0  0  0  0  0  0  0  0
  1  2  1  0
  2  3  1  0
  3  4  2  0
  4  5  1  0
  4  6  1  0
  6  7  2  0
  7  8  1  0
  8  9  2  0
  8 10  1  0
 10 11  2  0
 11 12  1  0
 11 13  1  0
 13 14  2  0
 13 15  1  0
 15 16  2  0
 16 17  1  0
 16 18  1  0
 18 19  2  0
 19 20  1  0
 19 21  1  0
 21 22  2  0
 22 23  1  0
  9  3  1  0
 23 10  1  0
 22 15  1  0
  1 24  1  0
  1 25  1  0
  1 26  1  0
  5 27  1  0
  6 28  1  0
  7 29  1  0
  9 30  1  0
 12 31  1  0
 17 32  1  0
 18 33  1  0
 20 34  1  0
 21 35  1  0
M  END
>  <LIG_ID>  (202) 
201

>  <_smiles>  (202) 
COC1=C(O)C=CC(=C1)C1=C(O)C(=O)C2=C(O)C=C(O)C=C2O1

>  <_name>  (202) 
Isorhamnetin

>  <_molecular_weight>  (202) 
316.262

>  <_formula>  (202) 
C16H12O7

>  <_logP>  (202) 
2.2910000000000004

>  <_molecular_wt_calculated>  (202) 
316.2649999999998

>  <_havy_atom_count>  (202) 
23

>  <_hydrogen_acceptors>  (202) 
7

>  <_hydrogen_donors>  (202) 
4

>  <_rotatable_bonds>  (202) 
7

>  <_amide_bonds>  (202) 
0

>  <_ring_count>  (202) 
3

$$$$
Kaempferol 3-O-glucoside
     RDKit          3D

 52 55  0  0  0  0  0  0  0  0999 V2000
    3.6630   -2.8101   -1.6624 O   0  0  0  0  0  0  0  0  0  0  0  0
    2.6532   -2.2514   -0.8638 C   0  0  0  0  0  0  0  0  0  0  0  0
    2.4970   -0.7474   -1.1504 C   0  0  1  0  0  0  0  0  0  0  0  0
    1.2966   -0.2848   -0.5355 O   0  0  0  0  0  0  0  0  0  0  0  0
    1.4668    0.6294    0.5404 C   0  0  1  0  0  0  0  0  0  0  0  0
    0.2635    0.6675    1.3036 O   0  0  0  0  0  0  0  0  0  0  0  0
   -0.9742    0.9601    0.7248 C   0  0  0  0  0  0  0  0  0  0  0  0
   -1.7918   -0.0624    0.2039 C   0  0  0  0  0  0  0  0  0  0  0  0
   -2.9422    0.2513   -0.3854 O   0  0  0  0  0  0  0  0  0  0  0  0
   -3.3895    1.4977   -0.4945 C   0  0  0  0  0  0  0  0  0  0  0  0
   -4.6143    1.7286   -1.1274 C   0  0  0  0  0  0  0  0  0  0  0  0
   -5.1109    3.0271   -1.2529 C   0  0  0  0  0  0  0  0  0  0  0  0
   -6.3340    3.2358   -1.8866 O   0  0  0  0  0  0  0  0  0  0  0  0
   -4.3791    4.1057   -0.7428 C   0  0  0  0  0  0  0  0  0  0  0  0
   -3.1472    3.8955   -0.1056 C   0  0  0  0  0  0  0  0  0  0  0  0
   -2.4394    4.9903    0.3920 O   0  0  0  0  0  0  0  0  0  0  0  0
   -2.6396    2.5806    0.0236 C   0  0  0  0  0  0  0  0  0  0  0  0
   -1.4079    2.2874    0.6430 C   0  0  0  0  0  0  0  0  0  0  0  0
   -0.6832    3.2020    1.1216 O   0  0  0  0  0  0  0  0  0  0  0  0
   -1.3983   -1.4894    0.2613 C   0  0  0  0  0  0  0  0  0  0  0  0
   -1.6282   -2.3140   -0.8525 C   0  0  0  0  0  0  0  0  0  0  0  0
   -1.2449   -3.6583   -0.8295 C   0  0  0  0  0  0  0  0  0  0  0  0
   -0.6382   -4.1979    0.3084 C   0  0  0  0  0  0  0  0  0  0  0  0
   -0.2536   -5.5366    0.3140 O   0  0  0  0  0  0  0  0  0  0  0  0
   -0.4251   -3.3886    1.4315 C   0  0  0  0  0  0  0  0  0  0  0  0
   -0.8102   -2.0450    1.4128 C   0  0  0  0  0  0  0  0  0  0  0  0
    2.6234    0.2293    1.4747 C   0  0  2  0  0  0  0  0  0  0  0  0
    2.7085    1.1303    2.5502 O   0  0  0  0  0  0  0  0  0  0  0  0
    3.9692    0.2190    0.7154 C   0  0  1  0  0  0  0  0  0  0  0  0
    4.7760   -0.8298    1.1880 O   0  0  0  0  0  0  0  0  0  0  0  0
    3.7744    0.0689   -0.8111 C   0  0  2  0  0  0  0  0  0  0  0  0
    3.6677    1.3370   -1.4100 O   0  0  0  0  0  0  0  0  0  0  0  0
    4.4833   -2.8542   -1.1051 H   0  0  0  0  0  0  0  0  0  0  0  0
    2.8403   -2.4398    0.2171 H   0  0  0  0  0  0  0  0  0  0  0  0
    1.6989   -2.7603   -1.1159 H   0  0  0  0  0  0  0  0  0  0  0  0
    2.3448   -0.6578   -2.2488 H   0  0  0  0  0  0  0  0  0  0  0  0
    1.6485    1.6492    0.1341 H   0  0  0  0  0  0  0  0  0  0  0  0
   -5.1829    0.8956   -1.5222 H   0  0  0  0  0  0  0  0  0  0  0  0
   -6.7231    4.1652   -1.9945 H   0  0  0  0  0  0  0  0  0  0  0  0
   -4.7685    5.1112   -0.8423 H   0  0  0  0  0  0  0  0  0  0  0  0
   -2.7916    5.9366    0.3058 H   0  0  0  0  0  0  0  0  0  0  0  0
   -2.0860   -1.9118   -1.7480 H   0  0  0  0  0  0  0  0  0  0  0  0
   -1.4150   -4.2801   -1.6992 H   0  0  0  0  0  0  0  0  0  0  0  0
    0.1894   -5.9567    1.1228 H   0  0  0  0  0  0  0  0  0  0  0  0
    0.0340   -3.8007    2.3211 H   0  0  0  0  0  0  0  0  0  0  0  0
   -0.6609   -1.4477    2.3028 H   0  0  0  0  0  0  0  0  0  0  0  0
    2.4132   -0.7967    1.8610 H   0  0  0  0  0  0  0  0  0  0  0  0
    2.0414    0.8420    3.2268 H   0  0  0  0  0  0  0  0  0  0  0  0
    4.5022    1.1833    0.8951 H   0  0  0  0  0  0  0  0  0  0  0  0
    5.0787   -0.5716    2.0978 H   0  0  0  0  0  0  0  0  0  0  0  0
    4.6606   -0.4481   -1.2485 H   0  0  0  0  0  0  0  0  0  0  0  0
    4.5850    1.7144   -1.4588 H   0  0  0  0  0  0  0  0  0  0  0  0
  1  2  1  0
  2  3  1  0
  3  4  1  0
  4  5  1  0
  5  6  1  0
  6  7  1  0
  7  8  2  0
  8  9  1  0
  9 10  1  0
 10 11  2  0
 11 12  1  0
 12 13  1  0
 12 14  2  0
 14 15  1  0
 15 16  1  0
 15 17  2  0
 17 18  1  0
 18 19  2  0
  8 20  1  0
 20 21  2  0
 21 22  1  0
 22 23  2  0
 23 24  1  0
 23 25  1  0
 25 26  2  0
  5 27  1  0
 27 28  1  0
 27 29  1  0
 29 30  1  0
 29 31  1  0
 31 32  1  0
 31  3  1  0
 18  7  1  0
 26 20  1  0
 17 10  1  0
  1 33  1  0
  2 34  1  0
  2 35  1  0
  3 36  1  6
  5 37  1  6
 11 38  1  0
 13 39  1  0
 14 40  1  0
 16 41  1  0
 21 42  1  0
 22 43  1  0
 24 44  1  0
 25 45  1  0
 26 46  1  0
 27 47  1  1
 28 48  1  0
 29 49  1  6
 30 50  1  0
 31 51  1  6
 32 52  1  0
M  END
>  <LIG_ID>  (203) 
202

>  <_smiles>  (203) 
OC[C@H]1O[C@@H](OC2=C(OC3=CC(O)=CC(O)=C3C2=O)C2=CC=C(O)C=C2)[C@H](O)[C@@H](O)[C@@H]1O

>  <_name>  (203) 
Kaempferol 3-O-glucoside

>  <_molecular_weight>  (203) 
448.377

>  <_formula>  (203) 
C21H20O11

>  <_logP>  (203) 
-0.24450000000000038

>  <_molecular_wt_calculated>  (203) 
448.3799999999999

>  <_havy_atom_count>  (203) 
32

>  <_hydrogen_acceptors>  (203) 
11

>  <_hydrogen_donors>  (203) 
7

>  <_rotatable_bonds>  (203) 
11

>  <_amide_bonds>  (203) 
0

>  <_ring_count>  (203) 
4

$$$$
Kaempferol 3-O-rutinoside
     RDKit          3D

 72 76  0  0  0  0  0  0  0  0999 V2000
    0.2280    2.4132   -0.2702 C   0  0  0  0  0  0  0  0  0  0  0  0
    1.2992    2.0804   -1.3136 C   0  0  2  0  0  0  0  0  0  0  0  0
    1.6727    0.7082   -1.2228 O   0  0  0  0  0  0  0  0  0  0  0  0
    2.7758    0.5104   -0.3529 C   0  0  1  0  0  0  0  0  0  0  0  0
    2.9582   -0.8754   -0.1336 O   0  0  0  0  0  0  0  0  0  0  0  0
    1.9232   -1.4140    0.6789 C   0  0  2  0  0  0  0  0  0  0  0  0
    2.5019   -1.8022    2.0624 C   0  0  1  0  0  0  0  0  0  0  0  0
    1.5810   -1.4976    3.0796 O   0  0  0  0  0  0  0  0  0  0  0  0
    2.8524   -3.3002    2.1428 C   0  0  2  0  0  0  0  0  0  0  0  0
    3.8924   -3.4720    3.0745 O   0  0  0  0  0  0  0  0  0  0  0  0
    3.2829   -3.8197    0.7462 C   0  0  1  0  0  0  0  0  0  0  0  0
    3.7230   -5.2911    0.7943 C   0  0  0  0  0  0  0  0  0  0  0  0
    2.6440   -6.1254    1.1245 O   0  0  0  0  0  0  0  0  0  0  0  0
    2.2758   -3.6923   -0.2550 O   0  0  0  0  0  0  0  0  0  0  0  0
    1.3327   -2.6478   -0.0447 C   0  0  1  0  0  0  0  0  0  0  0  0
    0.2066   -3.1729    0.6663 O   0  0  0  0  0  0  0  0  0  0  0  0
   -1.0508   -2.5562    0.7857 C   0  0  0  0  0  0  0  0  0  0  0  0
   -1.9784   -3.1185    1.6673 C   0  0  0  0  0  0  0  0  0  0  0  0
   -3.2440   -2.5423    1.8516 C   0  0  0  0  0  0  0  0  0  0  0  0
   -4.1406   -3.1336    2.7425 O   0  0  0  0  0  0  0  0  0  0  0  0
   -3.5925   -1.3714    1.1385 C   0  0  0  0  0  0  0  0  0  0  0  0
   -4.8404   -0.7278    1.2706 C   0  0  0  0  0  0  0  0  0  0  0  0
   -5.7278   -1.1872    2.0400 O   0  0  0  0  0  0  0  0  0  0  0  0
   -5.1022    0.4377    0.5321 C   0  0  0  0  0  0  0  0  0  0  0  0
   -6.3471    1.0671    0.6085 O   0  0  0  0  0  0  0  0  0  0  0  0
   -4.0964    0.9478   -0.3119 C   0  0  0  0  0  0  0  0  0  0  0  0
   -2.9432    0.2979   -0.4295 O   0  0  0  0  0  0  0  0  0  0  0  0
   -2.6557   -0.8097    0.2429 C   0  0  0  0  0  0  0  0  0  0  0  0
   -1.4070   -1.4067    0.0591 C   0  0  0  0  0  0  0  0  0  0  0  0
   -4.2732    2.1921   -1.0955 C   0  0  0  0  0  0  0  0  0  0  0  0
   -3.7545    2.2659   -2.3995 C   0  0  0  0  0  0  0  0  0  0  0  0
   -3.8759    3.4422   -3.1451 C   0  0  0  0  0  0  0  0  0  0  0  0
   -4.5019    4.5636   -2.5934 C   0  0  0  0  0  0  0  0  0  0  0  0
   -4.6162    5.7290   -3.3479 O   0  0  0  0  0  0  0  0  0  0  0  0
   -5.0026    4.5064   -1.2864 C   0  0  0  0  0  0  0  0  0  0  0  0
   -4.8827    3.3314   -0.5381 C   0  0  0  0  0  0  0  0  0  0  0  0
    4.0591    1.0854   -0.9895 C   0  0  2  0  0  0  0  0  0  0  0  0
    4.9909    1.3405    0.0326 O   0  0  0  0  0  0  0  0  0  0  0  0
    3.7555    2.3765   -1.7980 C   0  0  2  0  0  0  0  0  0  0  0  0
    4.8439    3.2643   -1.7616 O   0  0  0  0  0  0  0  0  0  0  0  0
    2.4977    3.0711   -1.2528 C   0  0  1  0  0  0  0  0  0  0  0  0
    2.2001    4.2122   -2.0174 O   0  0  0  0  0  0  0  0  0  0  0  0
   -0.6330    1.7231   -0.3841 H   0  0  0  0  0  0  0  0  0  0  0  0
   -0.1349    3.4532   -0.4136 H   0  0  0  0  0  0  0  0  0  0  0  0
    0.6299    2.3117    0.7594 H   0  0  0  0  0  0  0  0  0  0  0  0
    0.8191    2.2017   -2.3099 H   0  0  0  0  0  0  0  0  0  0  0  0
    2.6092    1.0244    0.6267 H   0  0  0  0  0  0  0  0  0  0  0  0
    1.0884   -0.6923    0.8445 H   0  0  0  0  0  0  0  0  0  0  0  0
    3.4355   -1.2127    2.2316 H   0  0  0  0  0  0  0  0  0  0  0  0
    1.6081   -0.5131    3.2078 H   0  0  0  0  0  0  0  0  0  0  0  0
    1.9435   -3.8623    2.4685 H   0  0  0  0  0  0  0  0  0  0  0  0
    3.7181   -4.3202    3.5599 H   0  0  0  0  0  0  0  0  0  0  0  0
    4.1699   -3.2322    0.4183 H   0  0  0  0  0  0  0  0  0  0  0  0
    4.5730   -5.4319    1.5011 H   0  0  0  0  0  0  0  0  0  0  0  0
    4.0938   -5.5843   -0.2110 H   0  0  0  0  0  0  0  0  0  0  0  0
    2.6413   -6.2166    2.1127 H   0  0  0  0  0  0  0  0  0  0  0  0
    0.9978   -2.3295   -1.0545 H   0  0  0  0  0  0  0  0  0  0  0  0
   -1.7081   -4.0090    2.2212 H   0  0  0  0  0  0  0  0  0  0  0  0
   -3.9028   -3.9715    3.2606 H   0  0  0  0  0  0  0  0  0  0  0  0
   -7.0945    0.7213    1.1983 H   0  0  0  0  0  0  0  0  0  0  0  0
   -0.7240   -0.9553   -0.6459 H   0  0  0  0  0  0  0  0  0  0  0  0
   -3.2626    1.4093   -2.8442 H   0  0  0  0  0  0  0  0  0  0  0  0
   -3.4803    3.4831   -4.1520 H   0  0  0  0  0  0  0  0  0  0  0  0
   -5.0628    6.5590   -2.9757 H   0  0  0  0  0  0  0  0  0  0  0  0
   -5.4749    5.3751   -0.8455 H   0  0  0  0  0  0  0  0  0  0  0  0
   -5.2400    3.3260    0.4834 H   0  0  0  0  0  0  0  0  0  0  0  0
    4.4713    0.3267   -1.6980 H   0  0  0  0  0  0  0  0  0  0  0  0
    5.8951    1.2504   -0.3676 H   0  0  0  0  0  0  0  0  0  0  0  0
    3.5483    2.0936   -2.8582 H   0  0  0  0  0  0  0  0  0  0  0  0
    5.5404    2.8848   -2.3590 H   0  0  0  0  0  0  0  0  0  0  0  0
    2.6857    3.3651   -0.1915 H   0  0  0  0  0  0  0  0  0  0  0  0
    2.7854    4.9431   -1.6874 H   0  0  0  0  0  0  0  0  0  0  0  0
  1  2  1  0
  2  3  1  0
  3  4  1  0
  4  5  1  0
  5  6  1  0
  6  7  1  0
  7  8  1  0
  7  9  1  0
  9 10  1  0
  9 11  1  0
 11 12  1  0
 12 13  1  0
 11 14  1  0
 14 15  1  0
 15 16  1  0
 16 17  1  0
 17 18  2  0
 18 19  1  0
 19 20  1  0
 19 21  2  0
 21 22  1  0
 22 23  2  0
 22 24  1  0
 24 25  1  0
 24 26  2  0
 26 27  1  0
 27 28  1  0
 28 29  2  0
 26 30  1  0
 30 31  2  0
 31 32  1  0
 32 33  2  0
 33 34  1  0
 33 35  1  0
 35 36  2  0
  4 37  1  0
 37 38  1  0
 37 39  1  0
 39 40  1  0
 39 41  1  0
 41 42  1  0
 41  2  1  0
 15  6  1  0
 29 17  1  0
 36 30  1  0
 28 21  1  0
  1 43  1  0
  1 44  1  0
  1 45  1  0
  2 46  1  6
  4 47  1  1
  6 48  1  1
  7 49  1  1
  8 50  1  0
  9 51  1  1
 10 52  1  0
 11 53  1  6
 12 54  1  0
 12 55  1  0
 13 56  1  0
 15 57  1  6
 18 58  1  0
 20 59  1  0
 25 60  1  0
 29 61  1  0
 31 62  1  0
 32 63  1  0
 34 64  1  0
 35 65  1  0
 36 66  1  0
 37 67  1  6
 38 68  1  0
 39 69  1  6
 40 70  1  0
 41 71  1  1
 42 72  1  0
M  END
>  <LIG_ID>  (204) 
203

>  <_smiles>  (204) 
C[C@@H]1O[C@@H](O[C@@H]2[C@@H](O)[C@H](O)[C@@H](CO)O[C@H]2OC2=CC(O)=C3C(=O)C(O)=C(OC3=C2)C2=CC=C(O)C=C2)[C@H](O)[C@H](O)[C@H]1O

>  <_name>  (204) 
Kaempferol 3-O-rutinoside

>  <_molecular_weight>  (204) 
594.518

>  <_formula>  (204) 
C27H30O15

>  <_logP>  (204) 
-1.3927000000000012

>  <_molecular_wt_calculated>  (204) 
594.5220000000015

>  <_havy_atom_count>  (204) 
42

>  <_hydrogen_acceptors>  (204) 
15

>  <_hydrogen_donors>  (204) 
9

>  <_rotatable_bonds>  (204) 
16

>  <_amide_bonds>  (204) 
0

>  <_ring_count>  (204) 
5

$$$$
Kaempferol 3-O-glucosyl-rhamnosyl-galactoside
     RDKit          3D

 93 98  0  0  0  0  0  0  0  0999 V2000
    4.0587    2.2361    2.6591 C   0  0  2  0  0  0  0  0  0  0  0  0
    4.2894    0.7849    3.1167 C   0  0  0  0  0  0  0  0  0  0  0  0
    2.6791    2.5428    2.5001 O   0  0  0  0  0  0  0  0  0  0  0  0
    2.1080    1.9541    1.3428 C   0  0  1  0  0  0  0  0  0  0  0  0
    0.7310    2.2958    1.3378 O   0  0  0  0  0  0  0  0  0  0  0  0
   -0.0939    1.2798    0.7873 C   0  0  0  0  0  0  0  0  0  0  0  0
   -1.1263    0.8223    1.8271 C   0  0  1  0  0  0  0  0  0  0  0  0
   -2.0286   -0.0794    1.2195 O   0  0  0  0  0  0  0  0  0  0  0  0
   -3.2253   -0.1920    1.9812 C   0  0  1  0  0  0  0  0  0  0  0  0
   -3.9305   -1.3504    1.5392 O   0  0  0  0  0  0  0  0  0  0  0  0
   -4.4401   -1.4595    0.2411 C   0  0  0  0  0  0  0  0  0  0  0  0
   -5.5691   -0.7275   -0.1718 C   0  0  0  0  0  0  0  0  0  0  0  0
   -5.9866   -0.8213   -1.4287 O   0  0  0  0  0  0  0  0  0  0  0  0
   -5.4011   -1.5905   -2.3393 C   0  0  0  0  0  0  0  0  0  0  0  0
   -5.9455   -1.6336   -3.6249 C   0  0  0  0  0  0  0  0  0  0  0  0
   -5.3782   -2.4479   -4.6058 C   0  0  0  0  0  0  0  0  0  0  0  0
   -5.9297   -2.5098   -5.8837 O   0  0  0  0  0  0  0  0  0  0  0  0
   -4.2440   -3.2020   -4.3088 C   0  0  0  0  0  0  0  0  0  0  0  0
   -3.6522   -3.1514   -3.0406 C   0  0  0  0  0  0  0  0  0  0  0  0
   -2.4677   -3.8763   -2.8782 O   0  0  0  0  0  0  0  0  0  0  0  0
   -4.2558   -2.3643   -2.0135 C   0  0  0  0  0  0  0  0  0  0  0  0
   -3.8074   -2.3096   -0.6720 C   0  0  0  0  0  0  0  0  0  0  0  0
   -2.8526   -3.0200   -0.2625 O   0  0  0  0  0  0  0  0  0  0  0  0
   -6.3270    0.1466    0.7515 C   0  0  0  0  0  0  0  0  0  0  0  0
   -6.6309   -0.2630    2.0629 C   0  0  0  0  0  0  0  0  0  0  0  0
   -7.3476    0.5794    2.9178 C   0  0  0  0  0  0  0  0  0  0  0  0
   -7.7837    1.8301    2.4707 C   0  0  0  0  0  0  0  0  0  0  0  0
   -8.4953    2.6597    3.3343 O   0  0  0  0  0  0  0  0  0  0  0  0
   -7.5048    2.2349    1.1588 C   0  0  0  0  0  0  0  0  0  0  0  0
   -6.7868    1.3952    0.3021 C   0  0  0  0  0  0  0  0  0  0  0  0
   -2.9802   -0.3123    3.5149 C   0  0  2  0  0  0  0  0  0  0  0  0
   -3.2467    0.9263    4.1248 O   0  0  0  0  0  0  0  0  0  0  0  0
   -1.5262   -0.7395    3.8180 C   0  0  1  0  0  0  0  0  0  0  0  0
   -1.3488   -2.1059    3.5234 O   0  0  0  0  0  0  0  0  0  0  0  0
   -0.4898    0.1548    3.0754 C   0  0  1  0  0  0  0  0  0  0  0  0
    0.6350   -0.6094    2.7178 O   0  0  0  0  0  0  0  0  0  0  0  0
    2.7803    2.5184    0.0735 C   0  0  2  0  0  0  0  0  0  0  0  0
    2.2035    1.9574   -1.0787 O   0  0  0  0  0  0  0  0  0  0  0  0
    4.2862    2.2042    0.0908 C   0  0  2  0  0  0  0  0  0  0  0  0
    4.4869    0.8056   -0.0688 O   0  0  0  0  0  0  0  0  0  0  0  0
    4.9482    0.4604   -1.3637 C   0  0  2  0  0  0  0  0  0  0  0  0
    4.5220   -0.8611   -1.6311 O   0  0  0  0  0  0  0  0  0  0  0  0
    4.6889   -1.1772   -3.0067 C   0  0  2  0  0  0  0  0  0  0  0  0
    4.3676   -2.6629   -3.2015 C   0  0  0  0  0  0  0  0  0  0  0  0
    3.0622   -2.9267   -2.7665 O   0  0  0  0  0  0  0  0  0  0  0  0
    6.1256   -0.8461   -3.5329 C   0  0  1  0  0  0  0  0  0  0  0  0
    6.0777    0.2651   -4.3912 O   0  0  0  0  0  0  0  0  0  0  0  0
    7.0914   -0.5460   -2.3708 C   0  0  2  0  0  0  0  0  0  0  0  0
    7.3524   -1.7443   -1.6831 O   0  0  0  0  0  0  0  0  0  0  0  0
    6.4988    0.5056   -1.3926 C   0  0  1  0  0  0  0  0  0  0  0  0
    6.9610    1.7976   -1.7006 O   0  0  0  0  0  0  0  0  0  0  0  0
    4.9143    2.6472    1.4283 C   0  0  1  0  0  0  0  0  0  0  0  0
    5.1461    4.0360    1.4262 O   0  0  0  0  0  0  0  0  0  0  0  0
    4.4162    2.8594    3.5082 H   0  0  0  0  0  0  0  0  0  0  0  0
    4.1275    0.0523    2.3025 H   0  0  0  0  0  0  0  0  0  0  0  0
    5.3334    0.6667    3.4774 H   0  0  0  0  0  0  0  0  0  0  0  0
    3.6023    0.5431    3.9550 H   0  0  0  0  0  0  0  0  0  0  0  0
    2.2582    0.8529    1.3867 H   0  0  0  0  0  0  0  0  0  0  0  0
   -0.6479    1.7261   -0.0661 H   0  0  0  0  0  0  0  0  0  0  0  0
    0.4447    0.4004    0.3642 H   0  0  0  0  0  0  0  0  0  0  0  0
   -1.6641    1.7477    2.1479 H   0  0  0  0  0  0  0  0  0  0  0  0
   -3.8576    0.7023    1.7832 H   0  0  0  0  0  0  0  0  0  0  0  0
   -6.8227   -1.0417   -3.8564 H   0  0  0  0  0  0  0  0  0  0  0  0
   -6.7521   -1.9725   -6.1327 H   0  0  0  0  0  0  0  0  0  0  0  0
   -3.7971   -3.8138   -5.0830 H   0  0  0  0  0  0  0  0  0  0  0  0
   -1.7976   -3.7317   -2.1388 H   0  0  0  0  0  0  0  0  0  0  0  0
   -6.3272   -1.2375    2.4230 H   0  0  0  0  0  0  0  0  0  0  0  0
   -7.5699    0.2569    3.9270 H   0  0  0  0  0  0  0  0  0  0  0  0
   -8.8259    3.5713    3.0400 H   0  0  0  0  0  0  0  0  0  0  0  0
   -7.8430    3.1995    0.8024 H   0  0  0  0  0  0  0  0  0  0  0  0
   -6.5758    1.7266   -0.7074 H   0  0  0  0  0  0  0  0  0  0  0  0
   -3.6769   -1.0758    3.9367 H   0  0  0  0  0  0  0  0  0  0  0  0
   -3.3770    0.7507    5.0934 H   0  0  0  0  0  0  0  0  0  0  0  0
   -1.3521   -0.6260    4.9105 H   0  0  0  0  0  0  0  0  0  0  0  0
   -1.4478   -2.2256    2.5436 H   0  0  0  0  0  0  0  0  0  0  0  0
   -0.1700    0.9780    3.7577 H   0  0  0  0  0  0  0  0  0  0  0  0
    1.1574   -0.7558    3.5495 H   0  0  0  0  0  0  0  0  0  0  0  0
    2.6498    3.6268    0.0600 H   0  0  0  0  0  0  0  0  0  0  0  0
    1.4491    2.5449   -1.3454 H   0  0  0  0  0  0  0  0  0  0  0  0
    4.7747    2.8078   -0.7113 H   0  0  0  0  0  0  0  0  0  0  0  0
    4.5176    1.1441   -2.1393 H   0  0  0  0  0  0  0  0  0  0  0  0
    3.9336   -0.6110   -3.6004 H   0  0  0  0  0  0  0  0  0  0  0  0
    5.0884   -3.2801   -2.6191 H   0  0  0  0  0  0  0  0  0  0  0  0
    4.4560   -2.9248   -4.2802 H   0  0  0  0  0  0  0  0  0  0  0  0
    2.9153   -3.8978   -2.9092 H   0  0  0  0  0  0  0  0  0  0  0  0
    6.5504   -1.7080   -4.1017 H   0  0  0  0  0  0  0  0  0  0  0  0
    5.6816   -0.0496   -5.2458 H   0  0  0  0  0  0  0  0  0  0  0  0
    8.0469   -0.1615   -2.8012 H   0  0  0  0  0  0  0  0  0  0  0  0
    8.1927   -1.6069   -1.1720 H   0  0  0  0  0  0  0  0  0  0  0  0
    6.8716    0.2677   -0.3714 H   0  0  0  0  0  0  0  0  0  0  0  0
    6.6444    2.0245   -2.6128 H   0  0  0  0  0  0  0  0  0  0  0  0
    5.9122    2.1631    1.5146 H   0  0  0  0  0  0  0  0  0  0  0  0
    4.2685    4.4949    1.4855 H   0  0  0  0  0  0  0  0  0  0  0  0
  1  2  1  0
  1  3  1  0
  3  4  1  0
  4  5  1  0
  5  6  1  0
  6  7  1  0
  7  8  1  0
  8  9  1  0
  9 10  1  0
 10 11  1  0
 11 12  2  0
 12 13  1  0
 13 14  1  0
 14 15  2  0
 15 16  1  0
 16 17  1  0
 16 18  2  0
 18 19  1  0
 19 20  1  0
 19 21  2  0
 21 22  1  0
 22 23  2  0
 12 24  1  0
 24 25  2  0
 25 26  1  0
 26 27  2  0
 27 28  1  0
 27 29  1  0
 29 30  2  0
  9 31  1  0
 31 32  1  0
 31 33  1  0
 33 34  1  0
 33 35  1  0
 35 36  1  0
  4 37  1  0
 37 38  1  0
 37 39  1  0
 39 40  1  0
 40 41  1  0
 41 42  1  0
 42 43  1  0
 43 44  1  0
 44 45  1  0
 43 46  1  0
 46 47  1  0
 46 48  1  0
 48 49  1  0
 48 50  1  0
 50 51  1  0
 39 52  1  0
 52 53  1  0
 52  1  1  0
 35  7  1  0
 50 41  1  0
 22 11  1  0
 30 24  1  0
 21 14  1  0
  1 54  1  1
  2 55  1  0
  2 56  1  0
  2 57  1  0
  4 58  1  1
  6 59  1  0
  6 60  1  0
  7 61  1  1
  9 62  1  1
 15 63  1  0
 17 64  1  0
 18 65  1  0
 20 66  1  0
 25 67  1  0
 26 68  1  0
 28 69  1  0
 29 70  1  0
 30 71  1  0
 31 72  1  1
 32 73  1  0
 33 74  1  1
 34 75  1  0
 35 76  1  1
 36 77  1  0
 37 78  1  6
 38 79  1  0
 39 80  1  6
 41 81  1  6
 43 82  1  6
 44 83  1  0
 44 84  1  0
 45 85  1  0
 46 86  1  6
 47 87  1  0
 48 88  1  6
 49 89  1  0
 50 90  1  1
 51 91  1  0
 52 92  1  1
 53 93  1  0
M  END
>  <LIG_ID>  (205) 
204

>  <_smiles>  (205) 
[H][C@@]1(C)O[C@@]([H])(OC[C@@]2([H])O[C@@]([H])(OC3=C(OC4=CC(O)=CC(O)=C4C3=O)C3=CC=C(O)C=C3)[C@]([H])(O)[C@@]([H])(O)[C@@]2([H])O)[C@]([H])(O)[C@]([H])(O[C@]2([H])O[C@]([H])(CO)[C@@]([H])(O)[C@]([H])(O)[C@@]2([H])O)[C@@]1([H])O

>  <_name>  (205) 
Kaempferol 3-O-glucosyl-rhamnosyl-galactoside

>  <_molecular_weight>  (205) 
756.659

>  <_formula>  (205) 
C33H40O20

>  <_logP>  (205) 
-3.568499999999999

>  <_molecular_wt_calculated>  (205) 
756.6630000000018

>  <_havy_atom_count>  (205) 
53

>  <_hydrogen_acceptors>  (205) 
20

>  <_hydrogen_donors>  (205) 
12

>  <_rotatable_bonds>  (205) 
22

>  <_amide_bonds>  (205) 
0

>  <_ring_count>  (205) 
6

$$$$
Kaempferol 3-O-glucosyl-rhamnosyl-glucoside
     RDKit          3D

 93 98  0  0  0  0  0  0  0  0999 V2000
   -0.1547    0.0214    2.1406 C   0  0  2  0  0  0  0  0  0  0  0  0
    0.8742   -0.1490    3.2597 C   0  0  0  0  0  0  0  0  0  0  0  0
    0.1899    1.1802    1.3945 O   0  0  0  0  0  0  0  0  0  0  0  0
   -0.6565    1.3578    0.2679 C   0  0  1  0  0  0  0  0  0  0  0  0
   -0.5376    0.2451   -0.6094 O   0  0  0  0  0  0  0  0  0  0  0  0
   -0.6499    0.6181   -1.9718 C   0  0  0  0  0  0  0  0  0  0  0  0
    0.7027    1.0919   -2.5379 C   0  0  1  0  0  0  0  0  0  0  0  0
    1.7303    0.2752   -1.9973 O   0  0  0  0  0  0  0  0  0  0  0  0
    2.9683    0.5749   -2.6110 C   0  0  1  0  0  0  0  0  0  0  0  0
    4.0239    0.0100   -1.8354 O   0  0  0  0  0  0  0  0  0  0  0  0
    4.2032    0.1687   -0.4466 C   0  0  0  0  0  0  0  0  0  0  0  0
    4.9403   -0.8069    0.2488 C   0  0  0  0  0  0  0  0  0  0  0  0
    5.1820   -0.6605    1.5453 O   0  0  0  0  0  0  0  0  0  0  0  0
    4.7209    0.3528    2.2656 C   0  0  0  0  0  0  0  0  0  0  0  0
    5.0425    0.4062    3.6239 C   0  0  0  0  0  0  0  0  0  0  0  0
    4.5813    1.4522    4.4187 C   0  0  0  0  0  0  0  0  0  0  0  0
    4.9260    1.4938    5.7679 O   0  0  0  0  0  0  0  0  0  0  0  0
    3.7711    2.4431    3.8596 C   0  0  0  0  0  0  0  0  0  0  0  0
    3.4057    2.3994    2.5088 C   0  0  0  0  0  0  0  0  0  0  0  0
    2.5142    3.3848    2.0735 O   0  0  0  0  0  0  0  0  0  0  0  0
    3.9192    1.3611    1.6732 C   0  0  0  0  0  0  0  0  0  0  0  0
    3.7126    1.2806    0.2755 C   0  0  0  0  0  0  0  0  0  0  0  0
    3.1475    2.2189   -0.3408 O   0  0  0  0  0  0  0  0  0  0  0  0
    5.4773   -2.0095   -0.4269 C   0  0  0  0  0  0  0  0  0  0  0  0
    4.6873   -2.7632   -1.3146 C   0  0  0  0  0  0  0  0  0  0  0  0
    5.2085   -3.9065   -1.9274 C   0  0  0  0  0  0  0  0  0  0  0  0
    6.5177   -4.3198   -1.6489 C   0  0  0  0  0  0  0  0  0  0  0  0
    7.0480   -5.4567   -2.2546 O   0  0  0  0  0  0  0  0  0  0  0  0
    7.2996   -3.5875   -0.7504 C   0  0  0  0  0  0  0  0  0  0  0  0
    6.7812   -2.4433   -0.1363 C   0  0  0  0  0  0  0  0  0  0  0  0
    2.9947   -0.0284   -4.0304 C   0  0  2  0  0  0  0  0  0  0  0  0
    3.8564    0.7339   -4.8366 O   0  0  0  0  0  0  0  0  0  0  0  0
    1.5692   -0.0636   -4.6499 C   0  0  1  0  0  0  0  0  0  0  0  0
    0.9491   -1.2896   -4.3528 O   0  0  0  0  0  0  0  0  0  0  0  0
    0.6927    1.0814   -4.1046 C   0  0  2  0  0  0  0  0  0  0  0  0
    1.1842    2.3025   -4.5968 O   0  0  0  0  0  0  0  0  0  0  0  0
   -2.1202    1.5636    0.7106 C   0  0  2  0  0  0  0  0  0  0  0  0
   -2.2142    2.7666    1.4323 O   0  0  0  0  0  0  0  0  0  0  0  0
   -2.5833    0.3772    1.5803 C   0  0  2  0  0  0  0  0  0  0  0  0
   -3.8594    0.6453    2.1409 O   0  0  0  0  0  0  0  0  0  0  0  0
   -4.9162    0.1870    1.3133 C   0  0  2  0  0  0  0  0  0  0  0  0
   -6.0103    1.0664    1.4860 O   0  0  0  0  0  0  0  0  0  0  0  0
   -6.9964    0.8485    0.4861 C   0  0  2  0  0  0  0  0  0  0  0  0
   -8.2138    1.7167    0.8247 C   0  0  0  0  0  0  0  0  0  0  0  0
   -9.1354    1.6882   -0.2307 O   0  0  0  0  0  0  0  0  0  0  0  0
   -7.3965   -0.6600    0.3512 C   0  0  1  0  0  0  0  0  0  0  0  0
   -6.8935   -1.1835   -0.8516 O   0  0  0  0  0  0  0  0  0  0  0  0
   -6.8544   -1.4905    1.5300 C   0  0  2  0  0  0  0  0  0  0  0  0
   -7.5751   -1.1497    2.6882 O   0  0  0  0  0  0  0  0  0  0  0  0
   -5.3386   -1.2375    1.7582 C   0  0  1  0  0  0  0  0  0  0  0  0
   -4.5613   -2.2183    1.1164 O   0  0  0  0  0  0  0  0  0  0  0  0
   -1.5828    0.1456    2.7205 C   0  0  1  0  0  0  0  0  0  0  0  0
   -1.9369   -1.0352    3.3972 O   0  0  0  0  0  0  0  0  0  0  0  0
   -0.0877   -0.8905    1.5038 H   0  0  0  0  0  0  0  0  0  0  0  0
    0.6595   -1.0584    3.8592 H   0  0  0  0  0  0  0  0  0  0  0  0
    1.8851   -0.2672    2.8198 H   0  0  0  0  0  0  0  0  0  0  0  0
    0.8754    0.7393    3.9270 H   0  0  0  0  0  0  0  0  0  0  0  0
   -0.3235    2.3029   -0.2190 H   0  0  0  0  0  0  0  0  0  0  0  0
   -1.4344    1.3908   -2.1413 H   0  0  0  0  0  0  0  0  0  0  0  0
   -0.9755   -0.2870   -2.5274 H   0  0  0  0  0  0  0  0  0  0  0  0
    0.8549    2.1357   -2.1807 H   0  0  0  0  0  0  0  0  0  0  0  0
    3.1349    1.6754   -2.6839 H   0  0  0  0  0  0  0  0  0  0  0  0
    5.6608   -0.3676    4.0624 H   0  0  0  0  0  0  0  0  0  0  0  0
    4.6042    2.2391    6.3745 H   0  0  0  0  0  0  0  0  0  0  0  0
    3.3933    3.2407    4.4874 H   0  0  0  0  0  0  0  0  0  0  0  0
    1.9498    3.3244    1.2397 H   0  0  0  0  0  0  0  0  0  0  0  0
    3.6616   -2.4826   -1.5183 H   0  0  0  0  0  0  0  0  0  0  0  0
    4.5911   -4.4748   -2.6114 H   0  0  0  0  0  0  0  0  0  0  0  0
    6.5064   -6.0093   -2.9089 H   0  0  0  0  0  0  0  0  0  0  0  0
    8.3098   -3.9060   -0.5267 H   0  0  0  0  0  0  0  0  0  0  0  0
    7.4021   -1.8886    0.5567 H   0  0  0  0  0  0  0  0  0  0  0  0
    3.3850   -1.0724   -3.9639 H   0  0  0  0  0  0  0  0  0  0  0  0
    4.0867    0.1722   -5.6224 H   0  0  0  0  0  0  0  0  0  0  0  0
    1.6351    0.0470   -5.7586 H   0  0  0  0  0  0  0  0  0  0  0  0
    1.3479   -1.9685   -4.9578 H   0  0  0  0  0  0  0  0  0  0  0  0
   -0.3419    0.9344   -4.4973 H   0  0  0  0  0  0  0  0  0  0  0  0
    0.4674    2.9757   -4.4587 H   0  0  0  0  0  0  0  0  0  0  0  0
   -2.7600    1.6244   -0.1995 H   0  0  0  0  0  0  0  0  0  0  0  0
   -3.1601    3.0637    1.3793 H   0  0  0  0  0  0  0  0  0  0  0  0
   -2.5839   -0.5479    0.9545 H   0  0  0  0  0  0  0  0  0  0  0  0
   -4.6179    0.1839    0.2333 H   0  0  0  0  0  0  0  0  0  0  0  0
   -6.6030    1.2234   -0.4877 H   0  0  0  0  0  0  0  0  0  0  0  0
   -7.8785    2.7653    0.9904 H   0  0  0  0  0  0  0  0  0  0  0  0
   -8.6920    1.3473    1.7599 H   0  0  0  0  0  0  0  0  0  0  0  0
   -9.8995    2.2528    0.0561 H   0  0  0  0  0  0  0  0  0  0  0  0
   -8.5062   -0.7806    0.3471 H   0  0  0  0  0  0  0  0  0  0  0  0
   -7.4588   -0.8179   -1.5817 H   0  0  0  0  0  0  0  0  0  0  0  0
   -7.0246   -2.5703    1.3039 H   0  0  0  0  0  0  0  0  0  0  0  0
   -7.4525   -1.8938    3.3342 H   0  0  0  0  0  0  0  0  0  0  0  0
   -5.1384   -1.3342    2.8486 H   0  0  0  0  0  0  0  0  0  0  0  0
   -4.7348   -2.1548    0.1419 H   0  0  0  0  0  0  0  0  0  0  0  0
   -1.6236    1.0231    3.4117 H   0  0  0  0  0  0  0  0  0  0  0  0
   -1.7487   -0.8896    4.3610 H   0  0  0  0  0  0  0  0  0  0  0  0
  1  2  1  0
  1  3  1  0
  3  4  1  0
  4  5  1  0
  5  6  1  0
  6  7  1  0
  7  8  1  0
  8  9  1  0
  9 10  1  0
 10 11  1  0
 11 12  2  0
 12 13  1  0
 13 14  1  0
 14 15  2  0
 15 16  1  0
 16 17  1  0
 16 18  2  0
 18 19  1  0
 19 20  1  0
 19 21  2  0
 21 22  1  0
 22 23  2  0
 12 24  1  0
 24 25  2  0
 25 26  1  0
 26 27  2  0
 27 28  1  0
 27 29  1  0
 29 30  2  0
  9 31  1  0
 31 32  1  0
 31 33  1  0
 33 34  1  0
 33 35  1  0
 35 36  1  0
  4 37  1  0
 37 38  1  0
 37 39  1  0
 39 40  1  0
 40 41  1  0
 41 42  1  0
 42 43  1  0
 43 44  1  0
 44 45  1  0
 43 46  1  0
 46 47  1  0
 46 48  1  0
 48 49  1  0
 48 50  1  0
 50 51  1  0
 39 52  1  0
 52 53  1  0
 52  1  1  0
 35  7  1  0
 50 41  1  0
 22 11  1  0
 30 24  1  0
 21 14  1  0
  1 54  1  6
  2 55  1  0
  2 56  1  0
  2 57  1  0
  4 58  1  6
  6 59  1  0
  6 60  1  0
  7 61  1  6
  9 62  1  6
 15 63  1  0
 17 64  1  0
 18 65  1  0
 20 66  1  0
 25 67  1  0
 26 68  1  0
 28 69  1  0
 29 70  1  0
 30 71  1  0
 31 72  1  1
 32 73  1  0
 33 74  1  6
 34 75  1  0
 35 76  1  1
 36 77  1  0
 37 78  1  6
 38 79  1  0
 39 80  1  6
 41 81  1  6
 43 82  1  6
 44 83  1  0
 44 84  1  0
 45 85  1  0
 46 86  1  6
 47 87  1  0
 48 88  1  6
 49 89  1  0
 50 90  1  1
 51 91  1  0
 52 92  1  1
 53 93  1  0
M  END
>  <LIG_ID>  (206) 
205

>  <_smiles>  (206) 
[H][C@@]1(C)O[C@@]([H])(OC[C@@]2([H])O[C@@]([H])(OC3=C(OC4=CC(O)=CC(O)=C4C3=O)C3=CC=C(O)C=C3)[C@]([H])(O)[C@@]([H])(O)[C@]2([H])O)[C@]([H])(O)[C@]([H])(O[C@]2([H])O[C@]([H])(CO)[C@@]([H])(O)[C@]([H])(O)[C@@]2([H])O)[C@@]1([H])O

>  <_name>  (206) 
Kaempferol 3-O-glucosyl-rhamnosyl-glucoside

>  <_molecular_weight>  (206) 
756.659

>  <_formula>  (206) 
C33H40O20

>  <_logP>  (206) 
-3.568499999999999

>  <_molecular_wt_calculated>  (206) 
756.6630000000018

>  <_havy_atom_count>  (206) 
53

>  <_hydrogen_acceptors>  (206) 
20

>  <_hydrogen_donors>  (206) 
12

>  <_rotatable_bonds>  (206) 
22

>  <_amide_bonds>  (206) 
0

>  <_ring_count>  (206) 
6

$$$$
Quercetin 3-O-glucosyl-rhamnosyl-galactoside
     RDKit          3D

 94 99  0  0  0  0  0  0  0  0999 V2000
   -0.3710    5.9994   -2.2734 C   0  0  0  0  0  0  0  0  0  0  0  0
   -0.9062    4.5972   -1.9780 C   0  0  2  0  0  0  0  0  0  0  0  0
   -1.8983    4.2911   -2.9479 O   0  0  0  0  0  0  0  0  0  0  0  0
   -2.3821    2.9627   -2.8138 C   0  0  1  0  0  0  0  0  0  0  0  0
   -1.3244    2.0337   -3.0169 O   0  0  0  0  0  0  0  0  0  0  0  0
   -1.8008    0.8418   -3.6126 C   0  0  0  0  0  0  0  0  0  0  0  0
   -0.6751   -0.2024   -3.6387 C   0  0  1  0  0  0  0  0  0  0  0  0
   -0.1248   -0.2839   -2.3287 O   0  0  0  0  0  0  0  0  0  0  0  0
    0.7553   -1.3850   -2.2006 C   0  0  1  0  0  0  0  0  0  0  0  0
    1.4888   -1.2022   -0.9854 O   0  0  0  0  0  0  0  0  0  0  0  0
    2.5507   -1.9773   -0.4750 C   0  0  0  0  0  0  0  0  0  0  0  0
    2.8704   -1.8455    0.8925 C   0  0  0  0  0  0  0  0  0  0  0  0
    3.7461   -2.6712    1.4559 O   0  0  0  0  0  0  0  0  0  0  0  0
    4.4069   -3.6033    0.7831 C   0  0  0  0  0  0  0  0  0  0  0  0
    5.2963   -4.4352    1.4694 C   0  0  0  0  0  0  0  0  0  0  0  0
    6.0299   -5.4060    0.7804 C   0  0  0  0  0  0  0  0  0  0  0  0
    6.9188   -6.2375    1.4581 O   0  0  0  0  0  0  0  0  0  0  0  0
    5.8738   -5.5445   -0.6002 C   0  0  0  0  0  0  0  0  0  0  0  0
    4.9833   -4.7217   -1.3058 C   0  0  0  0  0  0  0  0  0  0  0  0
    4.8449   -4.8920   -2.6840 O   0  0  0  0  0  0  0  0  0  0  0  0
    4.2341   -3.7390   -0.6126 C   0  0  0  0  0  0  0  0  0  0  0  0
    3.3140   -2.8794   -1.2491 C   0  0  0  0  0  0  0  0  0  0  0  0
    3.2049   -2.8921   -2.5029 O   0  0  0  0  0  0  0  0  0  0  0  0
    2.2815   -0.7811    1.7389 C   0  0  0  0  0  0  0  0  0  0  0  0
    2.1692    0.5387    1.2642 C   0  0  0  0  0  0  0  0  0  0  0  0
    1.7340    1.5676    2.1110 C   0  0  0  0  0  0  0  0  0  0  0  0
    1.6305    2.8719    1.6307 O   0  0  0  0  0  0  0  0  0  0  0  0
    1.4127    1.2822    3.4481 C   0  0  0  0  0  0  0  0  0  0  0  0
    0.9897    2.2869    4.3174 O   0  0  0  0  0  0  0  0  0  0  0  0
    1.5191   -0.0293    3.9222 C   0  0  0  0  0  0  0  0  0  0  0  0
    1.9574   -1.0533    3.0774 C   0  0  0  0  0  0  0  0  0  0  0  0
   -0.0727   -2.7032   -2.1595 C   0  0  2  0  0  0  0  0  0  0  0  0
    0.6973   -3.7615   -2.6661 O   0  0  0  0  0  0  0  0  0  0  0  0
   -1.3772   -2.5778   -2.9930 C   0  0  1  0  0  0  0  0  0  0  0  0
   -2.4258   -2.1166   -2.1787 O   0  0  0  0  0  0  0  0  0  0  0  0
   -1.1533   -1.5977   -4.1645 C   0  0  1  0  0  0  0  0  0  0  0  0
   -2.2679   -1.5180   -5.0229 O   0  0  0  0  0  0  0  0  0  0  0  0
   -3.0522    2.7629   -1.4322 C   0  0  2  0  0  0  0  0  0  0  0  0
   -4.1957    3.5751   -1.3375 O   0  0  0  0  0  0  0  0  0  0  0  0
   -2.0699    3.1210   -0.3071 C   0  0  2  0  0  0  0  0  0  0  0  0
   -2.7610    3.1040    0.9348 O   0  0  0  0  0  0  0  0  0  0  0  0
   -2.2518    2.1065    1.7989 C   0  0  2  0  0  0  0  0  0  0  0  0
   -2.4646    0.8258    1.2259 O   0  0  0  0  0  0  0  0  0  0  0  0
   -1.8460   -0.1770    2.0125 C   0  0  2  0  0  0  0  0  0  0  0  0
   -1.9020   -1.4932    1.2316 C   0  0  0  0  0  0  0  0  0  0  0  0
   -1.0627   -2.4483    1.8205 O   0  0  0  0  0  0  0  0  0  0  0  0
   -2.5576   -0.2851    3.3839 C   0  0  1  0  0  0  0  0  0  0  0  0
   -1.9117   -1.2341    4.1954 O   0  0  0  0  0  0  0  0  0  0  0  0
   -2.5242    1.0810    4.0950 C   0  0  2  0  0  0  0  0  0  0  0  0
   -3.3557    1.0558    5.2265 O   0  0  0  0  0  0  0  0  0  0  0  0
   -2.9994    2.1951    3.1432 C   0  0  1  0  0  0  0  0  0  0  0  0
   -2.8313    3.4615    3.7315 O   0  0  0  0  0  0  0  0  0  0  0  0
   -1.4910    4.5215   -0.5473 C   0  0  1  0  0  0  0  0  0  0  0  0
   -0.4853    4.7641    0.4041 O   0  0  0  0  0  0  0  0  0  0  0  0
    0.4712    6.2489   -1.5940 H   0  0  0  0  0  0  0  0  0  0  0  0
    0.0047    6.0441   -3.3178 H   0  0  0  0  0  0  0  0  0  0  0  0
   -1.1753    6.7565   -2.1533 H   0  0  0  0  0  0  0  0  0  0  0  0
   -0.0427    3.8983   -2.0669 H   0  0  0  0  0  0  0  0  0  0  0  0
   -3.1738    2.8483   -3.5924 H   0  0  0  0  0  0  0  0  0  0  0  0
   -2.1243    1.0493   -4.6578 H   0  0  0  0  0  0  0  0  0  0  0  0
   -2.6570    0.4262   -3.0378 H   0  0  0  0  0  0  0  0  0  0  0  0
    0.1069    0.1870   -4.3303 H   0  0  0  0  0  0  0  0  0  0  0  0
    1.4660   -1.3813   -3.0571 H   0  0  0  0  0  0  0  0  0  0  0  0
    5.4214   -4.3214    2.5392 H   0  0  0  0  0  0  0  0  0  0  0  0
    7.0559   -6.1625    2.4594 H   0  0  0  0  0  0  0  0  0  0  0  0
    6.4461   -6.2981   -1.1268 H   0  0  0  0  0  0  0  0  0  0  0  0
    5.3731   -5.5930   -3.1905 H   0  0  0  0  0  0  0  0  0  0  0  0
    2.4625    0.7830    0.2512 H   0  0  0  0  0  0  0  0  0  0  0  0
    1.8523    3.1025    0.6692 H   0  0  0  0  0  0  0  0  0  0  0  0
    0.8868    3.2490    4.0179 H   0  0  0  0  0  0  0  0  0  0  0  0
    1.2693   -0.2539    4.9513 H   0  0  0  0  0  0  0  0  0  0  0  0
    2.0510   -2.0581    3.4707 H   0  0  0  0  0  0  0  0  0  0  0  0
   -0.3366   -2.9209   -1.0988 H   0  0  0  0  0  0  0  0  0  0  0  0
    0.2991   -4.6023   -2.3186 H   0  0  0  0  0  0  0  0  0  0  0  0
   -1.6546   -3.5713   -3.4189 H   0  0  0  0  0  0  0  0  0  0  0  0
   -2.7291   -2.8903   -1.6353 H   0  0  0  0  0  0  0  0  0  0  0  0
   -0.3227   -2.0186   -4.7744 H   0  0  0  0  0  0  0  0  0  0  0  0
   -3.0844   -1.4095   -4.4707 H   0  0  0  0  0  0  0  0  0  0  0  0
   -3.3488    1.6980   -1.2992 H   0  0  0  0  0  0  0  0  0  0  0  0
   -4.9087    3.1302   -1.8662 H   0  0  0  0  0  0  0  0  0  0  0  0
   -1.2190    2.3943   -0.3549 H   0  0  0  0  0  0  0  0  0  0  0  0
   -1.1651    2.2974    1.9757 H   0  0  0  0  0  0  0  0  0  0  0  0
   -0.7702    0.0605    2.1624 H   0  0  0  0  0  0  0  0  0  0  0  0
   -2.9482   -1.8714    1.1881 H   0  0  0  0  0  0  0  0  0  0  0  0
   -1.5532   -1.2967    0.1952 H   0  0  0  0  0  0  0  0  0  0  0  0
   -1.1675   -3.2760    1.2835 H   0  0  0  0  0  0  0  0  0  0  0  0
   -3.6267   -0.5656    3.2183 H   0  0  0  0  0  0  0  0  0  0  0  0
   -2.4187   -2.0837    4.1141 H   0  0  0  0  0  0  0  0  0  0  0  0
   -1.4757    1.3008    4.4031 H   0  0  0  0  0  0  0  0  0  0  0  0
   -2.8570    0.5790    5.9404 H   0  0  0  0  0  0  0  0  0  0  0  0
   -4.0850    2.0507    2.9452 H   0  0  0  0  0  0  0  0  0  0  0  0
   -1.8590    3.5993    3.8797 H   0  0  0  0  0  0  0  0  0  0  0  0
   -2.3154    5.2689   -0.4450 H   0  0  0  0  0  0  0  0  0  0  0  0
   -0.5158    5.7317    0.6237 H   0  0  0  0  0  0  0  0  0  0  0  0
  1  2  1  0
  2  3  1  0
  3  4  1  0
  4  5  1  0
  5  6  1  0
  6  7  1  0
  7  8  1  0
  8  9  1  0
  9 10  1  0
 10 11  1  0
 11 12  2  0
 12 13  1  0
 13 14  1  0
 14 15  2  0
 15 16  1  0
 16 17  1  0
 16 18  2  0
 18 19  1  0
 19 20  1  0
 19 21  2  0
 21 22  1  0
 22 23  2  0
 12 24  1  0
 24 25  2  0
 25 26  1  0
 26 27  1  0
 26 28  2  0
 28 29  1  0
 28 30  1  0
 30 31  2  0
  9 32  1  0
 32 33  1  0
 32 34  1  0
 34 35  1  0
 34 36  1  0
 36 37  1  0
  4 38  1  0
 38 39  1  0
 38 40  1  0
 40 41  1  0
 41 42  1  0
 42 43  1  0
 43 44  1  0
 44 45  1  0
 45 46  1  0
 44 47  1  0
 47 48  1  0
 47 49  1  0
 49 50  1  0
 49 51  1  0
 51 52  1  0
 40 53  1  0
 53 54  1  0
 53  2  1  0
 36  7  1  0
 51 42  1  0
 22 11  1  0
 31 24  1  0
 21 14  1  0
  1 55  1  0
  1 56  1  0
  1 57  1  0
  2 58  1  1
  4 59  1  6
  6 60  1  0
  6 61  1  0
  7 62  1  6
  9 63  1  6
 15 64  1  0
 17 65  1  0
 18 66  1  0
 20 67  1  0
 25 68  1  0
 27 69  1  0
 29 70  1  0
 30 71  1  0
 31 72  1  0
 32 73  1  1
 33 74  1  0
 34 75  1  6
 35 76  1  0
 36 77  1  6
 37 78  1  0
 38 79  1  1
 39 80  1  0
 40 81  1  1
 42 82  1  1
 44 83  1  1
 45 84  1  0
 45 85  1  0
 46 86  1  0
 47 87  1  6
 48 88  1  0
 49 89  1  1
 50 90  1  0
 51 91  1  6
 52 92  1  0
 53 93  1  6
 54 94  1  0
M  END
>  <LIG_ID>  (207) 
206

>  <_smiles>  (207) 
C[C@@H]1O[C@@H](OC[C@H]2O[C@@H](OC3=C(OC4=CC(O)=CC(O)=C4C3=O)C3=CC(O)=C(O)C=C3)[C@H](O)[C@@H](O)[C@H]2O)[C@H](O)[C@H](O[C@@H]2O[C@H](CO)[C@@H](O)[C@H](O)[C@H]2O)[C@H]1O

>  <_name>  (207) 
Quercetin 3-O-glucosyl-rhamnosyl-galactoside

>  <_molecular_weight>  (207) 
772.658

>  <_formula>  (207) 
C33H40O21

>  <_logP>  (207) 
-3.8629000000000002

>  <_molecular_wt_calculated>  (207) 
772.6620000000019

>  <_havy_atom_count>  (207) 
54

>  <_hydrogen_acceptors>  (207) 
21

>  <_hydrogen_donors>  (207) 
13

>  <_rotatable_bonds>  (207) 
23

>  <_amide_bonds>  (207) 
0

>  <_ring_count>  (207) 
6

$$$$
Quercetin 3-O-glucosyl-rhamnosyl-glucoside
     RDKit          3D

 94 99  0  0  0  0  0  0  0  0999 V2000
   -1.2361   -1.6608    1.5161 C   0  0  2  0  0  0  0  0  0  0  0  0
   -0.6106   -2.9089    2.1406 C   0  0  0  0  0  0  0  0  0  0  0  0
   -1.4372   -0.7047    2.5450 O   0  0  0  0  0  0  0  0  0  0  0  0
   -1.8766    0.5421    2.0253 C   0  0  1  0  0  0  0  0  0  0  0  0
   -0.9136    1.0854    1.1289 O   0  0  0  0  0  0  0  0  0  0  0  0
   -0.0190    1.9711    1.7805 C   0  0  0  0  0  0  0  0  0  0  0  0
    0.9863    1.2272    2.6840 C   0  0  1  0  0  0  0  0  0  0  0  0
    1.5288    0.0981    1.9991 O   0  0  0  0  0  0  0  0  0  0  0  0
    2.8304    0.3071    1.4827 C   0  0  1  0  0  0  0  0  0  0  0  0
    2.8270    1.3887    0.5433 O   0  0  0  0  0  0  0  0  0  0  0  0
    3.8603    1.5911   -0.3798 C   0  0  0  0  0  0  0  0  0  0  0  0
    4.0779    0.7028   -1.4480 C   0  0  0  0  0  0  0  0  0  0  0  0
    5.1141    0.8880   -2.2567 O   0  0  0  0  0  0  0  0  0  0  0  0
    5.9667    1.8984   -2.1319 C   0  0  0  0  0  0  0  0  0  0  0  0
    7.0067    2.0113   -3.0575 C   0  0  0  0  0  0  0  0  0  0  0  0
    7.9057    3.0721   -2.9845 C   0  0  0  0  0  0  0  0  0  0  0  0
    8.9230    3.1768   -3.9307 O   0  0  0  0  0  0  0  0  0  0  0  0
    7.7841    4.0157   -1.9617 C   0  0  0  0  0  0  0  0  0  0  0  0
    6.7757    3.9090   -0.9958 C   0  0  0  0  0  0  0  0  0  0  0  0
    6.7996    4.8536    0.0349 O   0  0  0  0  0  0  0  0  0  0  0  0
    5.8168    2.8557   -1.0934 C   0  0  0  0  0  0  0  0  0  0  0  0
    4.7023    2.6989   -0.2348 C   0  0  0  0  0  0  0  0  0  0  0  0
    4.4323    3.5406    0.6610 O   0  0  0  0  0  0  0  0  0  0  0  0
    3.1665   -0.4257   -1.7281 C   0  0  0  0  0  0  0  0  0  0  0  0
    1.7736   -0.2393   -1.7527 C   0  0  0  0  0  0  0  0  0  0  0  0
    0.9202   -1.3026   -2.0653 C   0  0  0  0  0  0  0  0  0  0  0  0
   -0.4535   -1.0749   -2.1180 O   0  0  0  0  0  0  0  0  0  0  0  0
    1.4554   -2.5733   -2.3347 C   0  0  0  0  0  0  0  0  0  0  0  0
    0.6082   -3.6413   -2.6254 O   0  0  0  0  0  0  0  0  0  0  0  0
    2.8443   -2.7598   -2.3154 C   0  0  0  0  0  0  0  0  0  0  0  0
    3.6953   -1.6894   -2.0282 C   0  0  0  0  0  0  0  0  0  0  0  0
    3.8529    0.5493    2.6249 C   0  0  2  0  0  0  0  0  0  0  0  0
    4.3464   -0.6722    3.1175 O   0  0  0  0  0  0  0  0  0  0  0  0
    3.2483    1.3875    3.7807 C   0  0  1  0  0  0  0  0  0  0  0  0
    4.2237    2.2222    4.3554 O   0  0  0  0  0  0  0  0  0  0  0  0
    2.0340    2.1983    3.2966 C   0  0  2  0  0  0  0  0  0  0  0  0
    1.4538    2.8904    4.3736 O   0  0  0  0  0  0  0  0  0  0  0  0
   -3.2379    0.3969    1.3092 C   0  0  2  0  0  0  0  0  0  0  0  0
   -4.2785    0.1835    2.2338 O   0  0  0  0  0  0  0  0  0  0  0  0
   -3.1976   -0.7215    0.2425 C   0  0  2  0  0  0  0  0  0  0  0  0
   -4.5105   -1.0167   -0.2068 O   0  0  0  0  0  0  0  0  0  0  0  0
   -4.9116   -0.1918   -1.2919 C   0  0  2  0  0  0  0  0  0  0  0  0
   -6.2680    0.2021   -1.1374 O   0  0  0  0  0  0  0  0  0  0  0  0
   -7.2093   -0.8594   -1.2617 C   0  0  2  0  0  0  0  0  0  0  0  0
   -7.2756   -1.7639   -0.0145 C   0  0  0  0  0  0  0  0  0  0  0  0
   -7.2896   -0.9758    1.1439 O   0  0  0  0  0  0  0  0  0  0  0  0
   -7.0830   -1.6421   -2.5910 C   0  0  1  0  0  0  0  0  0  0  0  0
   -7.5755   -0.8438   -3.6378 O   0  0  0  0  0  0  0  0  0  0  0  0
   -5.6270   -2.0578   -2.8871 C   0  0  2  0  0  0  0  0  0  0  0  0
   -5.2578   -3.1507   -2.0860 O   0  0  0  0  0  0  0  0  0  0  0  0
   -4.6518   -0.8948   -2.6454 C   0  0  1  0  0  0  0  0  0  0  0  0
   -4.6878    0.0203   -3.7150 O   0  0  0  0  0  0  0  0  0  0  0  0
   -2.5718   -2.0024    0.8238 C   0  0  1  0  0  0  0  0  0  0  0  0
   -2.3422   -2.9253   -0.2104 O   0  0  0  0  0  0  0  0  0  0  0  0
   -0.5090   -1.2853    0.7600 H   0  0  0  0  0  0  0  0  0  0  0  0
   -1.2983   -3.3553    2.8903 H   0  0  0  0  0  0  0  0  0  0  0  0
   -0.3814   -3.6643    1.3592 H   0  0  0  0  0  0  0  0  0  0  0  0
    0.3394   -2.6363    2.6479 H   0  0  0  0  0  0  0  0  0  0  0  0
   -2.0641    1.2175    2.8932 H   0  0  0  0  0  0  0  0  0  0  0  0
    0.5406    2.5127    0.9900 H   0  0  0  0  0  0  0  0  0  0  0  0
   -0.5627    2.7555    2.3547 H   0  0  0  0  0  0  0  0  0  0  0  0
    0.4132    0.8154    3.5426 H   0  0  0  0  0  0  0  0  0  0  0  0
    3.1227   -0.6231    0.9512 H   0  0  0  0  0  0  0  0  0  0  0  0
    7.1065    1.2777   -3.8483 H   0  0  0  0  0  0  0  0  0  0  0  0
    9.5948    3.9351   -3.9051 H   0  0  0  0  0  0  0  0  0  0  0  0
    8.4994    4.8265   -1.8963 H   0  0  0  0  0  0  0  0  0  0  0  0
    6.3284    4.7553    0.9208 H   0  0  0  0  0  0  0  0  0  0  0  0
    1.3486    0.7379   -1.5579 H   0  0  0  0  0  0  0  0  0  0  0  0
   -1.1091   -1.8045   -2.3689 H   0  0  0  0  0  0  0  0  0  0  0  0
    0.9700   -4.5670   -2.8233 H   0  0  0  0  0  0  0  0  0  0  0  0
    3.2660   -3.7335   -2.5299 H   0  0  0  0  0  0  0  0  0  0  0  0
    4.7666   -1.8502   -2.0251 H   0  0  0  0  0  0  0  0  0  0  0  0
    4.7202    1.0937    2.1946 H   0  0  0  0  0  0  0  0  0  0  0  0
    3.5675   -1.2152    3.4098 H   0  0  0  0  0  0  0  0  0  0  0  0
    2.8874    0.7004    4.5785 H   0  0  0  0  0  0  0  0  0  0  0  0
    4.4891    2.8917    3.6714 H   0  0  0  0  0  0  0  0  0  0  0  0
    2.3661    2.9277    2.5205 H   0  0  0  0  0  0  0  0  0  0  0  0
    1.9997    3.7063    4.5216 H   0  0  0  0  0  0  0  0  0  0  0  0
   -3.4505    1.3602    0.7977 H   0  0  0  0  0  0  0  0  0  0  0  0
   -4.0459   -0.6081    2.7841 H   0  0  0  0  0  0  0  0  0  0  0  0
   -2.5362   -0.3906   -0.5935 H   0  0  0  0  0  0  0  0  0  0  0  0
   -4.3339    0.7621   -1.3142 H   0  0  0  0  0  0  0  0  0  0  0  0
   -8.2077   -0.3688   -1.2966 H   0  0  0  0  0  0  0  0  0  0  0  0
   -6.4267   -2.4765    0.0231 H   0  0  0  0  0  0  0  0  0  0  0  0
   -8.2096   -2.3683   -0.0569 H   0  0  0  0  0  0  0  0  0  0  0  0
   -7.3117   -1.6083    1.9084 H   0  0  0  0  0  0  0  0  0  0  0  0
   -7.7157   -2.5588   -2.5205 H   0  0  0  0  0  0  0  0  0  0  0  0
   -7.7665   -1.4503   -4.4006 H   0  0  0  0  0  0  0  0  0  0  0  0
   -5.5422   -2.3605   -3.9578 H   0  0  0  0  0  0  0  0  0  0  0  0
   -5.7072   -3.9516   -2.4633 H   0  0  0  0  0  0  0  0  0  0  0  0
   -3.6227   -1.3144   -2.6243 H   0  0  0  0  0  0  0  0  0  0  0  0
   -5.5030    0.5773   -3.6229 H   0  0  0  0  0  0  0  0  0  0  0  0
   -3.2618   -2.4458    1.5808 H   0  0  0  0  0  0  0  0  0  0  0  0
   -3.1983   -3.4016   -0.3677 H   0  0  0  0  0  0  0  0  0  0  0  0
  1  2  1  0
  1  3  1  0
  3  4  1  0
  4  5  1  0
  5  6  1  0
  6  7  1  0
  7  8  1  0
  8  9  1  0
  9 10  1  0
 10 11  1  0
 11 12  2  0
 12 13  1  0
 13 14  1  0
 14 15  2  0
 15 16  1  0
 16 17  1  0
 16 18  2  0
 18 19  1  0
 19 20  1  0
 19 21  2  0
 21 22  1  0
 22 23  2  0
 12 24  1  0
 24 25  2  0
 25 26  1  0
 26 27  1  0
 26 28  2  0
 28 29  1  0
 28 30  1  0
 30 31  2  0
  9 32  1  0
 32 33  1  0
 32 34  1  0
 34 35  1  0
 34 36  1  0
 36 37  1  0
  4 38  1  0
 38 39  1  0
 38 40  1  0
 40 41  1  0
 41 42  1  0
 42 43  1  0
 43 44  1  0
 44 45  1  0
 45 46  1  0
 44 47  1  0
 47 48  1  0
 47 49  1  0
 49 50  1  0
 49 51  1  0
 51 52  1  0
 40 53  1  0
 53 54  1  0
 53  1  1  0
 36  7  1  0
 51 42  1  0
 22 11  1  0
 31 24  1  0
 21 14  1  0
  1 55  1  6
  2 56  1  0
  2 57  1  0
  2 58  1  0
  4 59  1  1
  6 60  1  0
  6 61  1  0
  7 62  1  1
  9 63  1  6
 15 64  1  0
 17 65  1  0
 18 66  1  0
 20 67  1  0
 25 68  1  0
 27 69  1  0
 29 70  1  0
 30 71  1  0
 31 72  1  0
 32 73  1  6
 33 74  1  0
 34 75  1  1
 35 76  1  0
 36 77  1  6
 37 78  1  0
 38 79  1  6
 39 80  1  0
 40 81  1  6
 42 82  1  6
 44 83  1  6
 45 84  1  0
 45 85  1  0
 46 86  1  0
 47 87  1  1
 48 88  1  0
 49 89  1  6
 50 90  1  0
 51 91  1  1
 52 92  1  0
 53 93  1  1
 54 94  1  0
M  END
>  <LIG_ID>  (208) 
207

>  <_smiles>  (208) 
[H][C@@]1(C)O[C@@]([H])(OC[C@@]2([H])O[C@@]([H])(OC3=C(OC4=CC(O)=CC(O)=C4C3=O)C3=CC(O)=C(O)C=C3)[C@]([H])(O)[C@@]([H])(O)[C@]2([H])O)[C@]([H])(O)[C@]([H])(O[C@]2([H])O[C@]([H])(CO)[C@@]([H])(O)[C@]([H])(O)[C@@]2([H])O)[C@@]1([H])O

>  <_name>  (208) 
Quercetin 3-O-glucosyl-rhamnosyl-glucoside

>  <_molecular_weight>  (208) 
772.658

>  <_formula>  (208) 
C33H40O21

>  <_logP>  (208) 
-3.8629000000000002

>  <_molecular_wt_calculated>  (208) 
772.6620000000019

>  <_havy_atom_count>  (208) 
54

>  <_hydrogen_acceptors>  (208) 
21

>  <_hydrogen_donors>  (208) 
13

>  <_rotatable_bonds>  (208) 
23

>  <_amide_bonds>  (208) 
0

>  <_ring_count>  (208) 
6

$$$$
Rhamnetin
     RDKit          3D

 35 37  0  0  0  0  0  0  0  0999 V2000
    4.9781    0.0485    2.4118 C   0  0  0  0  0  0  0  0  0  0  0  0
    4.9796   -0.4373    1.0733 O   0  0  0  0  0  0  0  0  0  0  0  0
    3.8379   -0.5340    0.2636 C   0  0  0  0  0  0  0  0  0  0  0  0
    3.9863   -1.0303   -1.0345 C   0  0  0  0  0  0  0  0  0  0  0  0
    2.8842   -1.1504   -1.8931 C   0  0  0  0  0  0  0  0  0  0  0  0
    3.0745   -1.6496   -3.1824 O   0  0  0  0  0  0  0  0  0  0  0  0
    1.5992   -0.7655   -1.4439 C   0  0  0  0  0  0  0  0  0  0  0  0
    0.4443   -0.8472   -2.2489 C   0  0  0  0  0  0  0  0  0  0  0  0
    0.5093   -1.2737   -3.4340 O   0  0  0  0  0  0  0  0  0  0  0  0
   -0.7943   -0.4411   -1.7285 C   0  0  0  0  0  0  0  0  0  0  0  0
   -1.9448   -0.4655   -2.5211 O   0  0  0  0  0  0  0  0  0  0  0  0
   -0.8552    0.0215   -0.3999 C   0  0  0  0  0  0  0  0  0  0  0  0
    0.2576    0.0986    0.3242 O   0  0  0  0  0  0  0  0  0  0  0  0
    1.4514   -0.2660   -0.1297 C   0  0  0  0  0  0  0  0  0  0  0  0
    2.5620   -0.1518    0.7117 C   0  0  0  0  0  0  0  0  0  0  0  0
   -2.1265    0.4495    0.2269 C   0  0  0  0  0  0  0  0  0  0  0  0
   -3.3091   -0.2951    0.0678 C   0  0  0  0  0  0  0  0  0  0  0  0
   -4.4963    0.1117    0.6878 C   0  0  0  0  0  0  0  0  0  0  0  0
   -5.6513   -0.6476    0.5031 O   0  0  0  0  0  0  0  0  0  0  0  0
   -4.5077    1.2676    1.4863 C   0  0  0  0  0  0  0  0  0  0  0  0
   -5.6878    1.6804    2.1029 O   0  0  0  0  0  0  0  0  0  0  0  0
   -3.3267    2.0002    1.6636 C   0  0  0  0  0  0  0  0  0  0  0  0
   -2.1431    1.5899    1.0451 C   0  0  0  0  0  0  0  0  0  0  0  0
    6.0126    0.0150    2.8107 H   0  0  0  0  0  0  0  0  0  0  0  0
    4.6215    1.0999    2.4361 H   0  0  0  0  0  0  0  0  0  0  0  0
    4.3306   -0.5901    3.0491 H   0  0  0  0  0  0  0  0  0  0  0  0
    4.9699   -1.3250   -1.3789 H   0  0  0  0  0  0  0  0  0  0  0  0
    3.9896   -1.9287   -3.5164 H   0  0  0  0  0  0  0  0  0  0  0  0
   -1.9345   -0.7834   -3.4828 H   0  0  0  0  0  0  0  0  0  0  0  0
    2.4192    0.2343    1.7122 H   0  0  0  0  0  0  0  0  0  0  0  0
   -3.3100   -1.2069   -0.5159 H   0  0  0  0  0  0  0  0  0  0  0  0
   -6.5344   -0.3968    0.9313 H   0  0  0  0  0  0  0  0  0  0  0  0
   -5.7207    2.5095    2.6846 H   0  0  0  0  0  0  0  0  0  0  0  0
   -3.3246    2.8884    2.2826 H   0  0  0  0  0  0  0  0  0  0  0  0
   -1.2411    2.1708    1.1952 H   0  0  0  0  0  0  0  0  0  0  0  0
  1  2  1  0
  2  3  1  0
  3  4  2  0
  4  5  1  0
  5  6  1  0
  5  7  2  0
  7  8  1  0
  8  9  2  0
  8 10  1  0
 10 11  1  0
 10 12  2  0
 12 13  1  0
 13 14  1  0
 14 15  2  0
 12 16  1  0
 16 17  2  0
 17 18  1  0
 18 19  1  0
 18 20  2  0
 20 21  1  0
 20 22  1  0
 22 23  2  0
 15  3  1  0
 23 16  1  0
 14  7  1  0
  1 24  1  0
  1 25  1  0
  1 26  1  0
  4 27  1  0
  6 28  1  0
 11 29  1  0
 15 30  1  0
 17 31  1  0
 19 32  1  0
 21 33  1  0
 22 34  1  0
 23 35  1  0
M  END
>  <LIG_ID>  (209) 
208

>  <_smiles>  (209) 
COC1=CC(O)=C2C(=O)C(O)=C(OC2=C1)C1=CC(O)=C(O)C=C1

>  <_name>  (209) 
Rhamnetin

>  <_molecular_weight>  (209) 
316.262

>  <_formula>  (209) 
C16H12O7

>  <_logP>  (209) 
2.2910000000000013

>  <_molecular_wt_calculated>  (209) 
316.2649999999998

>  <_havy_atom_count>  (209) 
23

>  <_hydrogen_acceptors>  (209) 
7

>  <_hydrogen_donors>  (209) 
4

>  <_rotatable_bonds>  (209) 
7

>  <_amide_bonds>  (209) 
0

>  <_ring_count>  (209) 
3

$$$$
Isorhamnetin 3-O-glucoside
     RDKit          3D

 56 59  0  0  0  0  0  0  0  0999 V2000
    2.9954    3.6708    0.5471 C   0  0  0  0  0  0  0  0  0  0  0  0
    2.1696    3.4092    1.6771 O   0  0  0  0  0  0  0  0  0  0  0  0
    1.5186    2.1896    1.9218 C   0  0  0  0  0  0  0  0  0  0  0  0
    0.6921    2.0766    3.0548 C   0  0  0  0  0  0  0  0  0  0  0  0
    0.5212    3.1476    3.9317 O   0  0  0  0  0  0  0  0  0  0  0  0
    0.0236    0.8771    3.3170 C   0  0  0  0  0  0  0  0  0  0  0  0
    0.1580   -0.2107    2.4532 C   0  0  0  0  0  0  0  0  0  0  0  0
    0.9705   -0.1116    1.3146 C   0  0  0  0  0  0  0  0  0  0  0  0
    1.6639    1.0815    1.0634 C   0  0  0  0  0  0  0  0  0  0  0  0
    1.1028   -1.2441    0.3780 C   0  0  0  0  0  0  0  0  0  0  0  0
   -0.0231   -1.9131   -0.1393 C   0  0  0  0  0  0  0  0  0  0  0  0
   -1.3232   -1.4949    0.1662 O   0  0  0  0  0  0  0  0  0  0  0  0
   -1.9679   -0.4565   -0.5708 C   0  0  2  0  0  0  0  0  0  0  0  0
   -1.3453    0.7772   -0.2524 O   0  0  0  0  0  0  0  0  0  0  0  0
   -2.0410    1.8611   -0.8319 C   0  0  2  0  0  0  0  0  0  0  0  0
   -1.1335    3.0991   -0.7573 C   0  0  0  0  0  0  0  0  0  0  0  0
   -1.7248    4.2004   -1.3921 O   0  0  0  0  0  0  0  0  0  0  0  0
   -3.3896    2.0923   -0.0926 C   0  0  1  0  0  0  0  0  0  0  0  0
   -4.3490    2.5654   -1.0051 O   0  0  0  0  0  0  0  0  0  0  0  0
   -3.9152    0.7850    0.5551 C   0  0  2  0  0  0  0  0  0  0  0  0
   -3.5124    0.6792    1.8998 O   0  0  0  0  0  0  0  0  0  0  0  0
   -3.4885   -0.4676   -0.2433 C   0  0  1  0  0  0  0  0  0  0  0  0
   -4.2151   -0.5278   -1.4456 O   0  0  0  0  0  0  0  0  0  0  0  0
    0.1701   -3.0008   -0.9975 C   0  0  0  0  0  0  0  0  0  0  0  0
   -0.8356   -3.6136   -1.4488 O   0  0  0  0  0  0  0  0  0  0  0  0
    1.4793   -3.3848   -1.3528 C   0  0  0  0  0  0  0  0  0  0  0  0
    1.7595   -4.4664   -2.2217 C   0  0  0  0  0  0  0  0  0  0  0  0
    0.7295   -5.2295   -2.7732 O   0  0  0  0  0  0  0  0  0  0  0  0
    3.0904   -4.7790   -2.5360 C   0  0  0  0  0  0  0  0  0  0  0  0
    4.1443   -4.0305   -1.9992 C   0  0  0  0  0  0  0  0  0  0  0  0
    5.4661   -4.3401   -2.3122 O   0  0  0  0  0  0  0  0  0  0  0  0
    3.8727   -2.9634   -1.1412 C   0  0  0  0  0  0  0  0  0  0  0  0
    2.5535   -2.6369   -0.8139 C   0  0  0  0  0  0  0  0  0  0  0  0
    2.3236   -1.6206    0.0104 O   0  0  0  0  0  0  0  0  0  0  0  0
    3.3660    4.7147    0.6032 H   0  0  0  0  0  0  0  0  0  0  0  0
    3.8679    2.9838    0.5441 H   0  0  0  0  0  0  0  0  0  0  0  0
    2.4100    3.5514   -0.3891 H   0  0  0  0  0  0  0  0  0  0  0  0
    0.9791    4.0398    3.7900 H   0  0  0  0  0  0  0  0  0  0  0  0
   -0.6101    0.7909    4.1906 H   0  0  0  0  0  0  0  0  0  0  0  0
   -0.3704   -1.1299    2.6740 H   0  0  0  0  0  0  0  0  0  0  0  0
    2.2896    1.1480    0.1830 H   0  0  0  0  0  0  0  0  0  0  0  0
   -1.8201   -0.6703   -1.6557 H   0  0  0  0  0  0  0  0  0  0  0  0
   -2.2310    1.6575   -1.9135 H   0  0  0  0  0  0  0  0  0  0  0  0
   -0.1497    2.8718   -1.2284 H   0  0  0  0  0  0  0  0  0  0  0  0
   -0.9362    3.3587    0.3051 H   0  0  0  0  0  0  0  0  0  0  0  0
   -1.6473    4.0405   -2.3688 H   0  0  0  0  0  0  0  0  0  0  0  0
   -3.2594    2.8392    0.7277 H   0  0  0  0  0  0  0  0  0  0  0  0
   -4.2334    3.5489   -1.0686 H   0  0  0  0  0  0  0  0  0  0  0  0
   -5.0271    0.8225    0.5695 H   0  0  0  0  0  0  0  0  0  0  0  0
   -2.5242    0.7344    1.9326 H   0  0  0  0  0  0  0  0  0  0  0  0
   -3.7256   -1.3729    0.3655 H   0  0  0  0  0  0  0  0  0  0  0  0
   -5.1290   -0.8426   -1.2177 H   0  0  0  0  0  0  0  0  0  0  0  0
    0.9166   -6.0062   -3.3968 H   0  0  0  0  0  0  0  0  0  0  0  0
    3.3060   -5.6061   -3.2008 H   0  0  0  0  0  0  0  0  0  0  0  0
    5.6981   -5.1080   -2.9314 H   0  0  0  0  0  0  0  0  0  0  0  0
    4.6901   -2.3867   -0.7258 H   0  0  0  0  0  0  0  0  0  0  0  0
  1  2  1  0
  2  3  1  0
  3  4  2  0
  4  5  1  0
  4  6  1  0
  6  7  2  0
  7  8  1  0
  8  9  2  0
  8 10  1  0
 10 11  2  0
 11 12  1  0
 12 13  1  0
 13 14  1  0
 14 15  1  0
 15 16  1  0
 16 17  1  0
 15 18  1  0
 18 19  1  0
 18 20  1  0
 20 21  1  0
 20 22  1  0
 22 23  1  0
 11 24  1  0
 24 25  2  0
 24 26  1  0
 26 27  2  0
 27 28  1  0
 27 29  1  0
 29 30  2  0
 30 31  1  0
 30 32  1  0
 32 33  2  0
 33 34  1  0
  9  3  1  0
 34 10  1  0
 22 13  1  0
 33 26  1  0
  1 35  1  0
  1 36  1  0
  1 37  1  0
  5 38  1  0
  6 39  1  0
  7 40  1  0
  9 41  1  0
 13 42  1  6
 15 43  1  6
 16 44  1  0
 16 45  1  0
 17 46  1  0
 18 47  1  1
 19 48  1  0
 20 49  1  1
 21 50  1  0
 22 51  1  1
 23 52  1  0
 28 53  1  0
 29 54  1  0
 31 55  1  0
 32 56  1  0
M  END
>  <LIG_ID>  (210) 
209

>  <_smiles>  (210) 
COC1=C(O)C=CC(=C1)C1=C(O[C@@H]2O[C@H](CO)[C@@H](O)[C@H](O)[C@H]2O)C(=O)C2=C(O)C=C(O)C=C2O1

>  <_name>  (210) 
Isorhamnetin 3-O-glucoside

>  <_molecular_weight>  (210) 
478.403

>  <_formula>  (210) 
C22H22O12

>  <_logP>  (210) 
-0.2359000000000006

>  <_molecular_wt_calculated>  (210) 
478.4059999999999

>  <_havy_atom_count>  (210) 
34

>  <_hydrogen_acceptors>  (210) 
12

>  <_hydrogen_donors>  (210) 
7

>  <_rotatable_bonds>  (210) 
13

>  <_amide_bonds>  (210) 
0

>  <_ring_count>  (210) 
4

$$$$
Myricetin 3-O-rhamnoside
     RDKit          3D

 53 56  0  0  0  0  0  0  0  0999 V2000
    4.1177    2.2210   -1.1089 C   0  0  0  0  0  0  0  0  0  0  0  0
    3.2882    1.1212   -0.4435 C   0  0  2  0  0  0  0  0  0  0  0  0
    2.0986    1.7101    0.0593 O   0  0  0  0  0  0  0  0  0  0  0  0
    1.2074    0.7350    0.5770 C   0  0  1  0  0  0  0  0  0  0  0  0
    0.8071   -0.1779   -0.4518 O   0  0  0  0  0  0  0  0  0  0  0  0
   -0.3881   -0.9053   -0.3968 C   0  0  0  0  0  0  0  0  0  0  0  0
   -1.6437   -0.2750   -0.4966 C   0  0  0  0  0  0  0  0  0  0  0  0
   -2.7511   -0.9985   -0.3826 O   0  0  0  0  0  0  0  0  0  0  0  0
   -2.7508   -2.3130   -0.1950 C   0  0  0  0  0  0  0  0  0  0  0  0
   -3.9782   -2.9753   -0.1178 C   0  0  0  0  0  0  0  0  0  0  0  0
   -4.0265   -4.3569    0.0486 C   0  0  0  0  0  0  0  0  0  0  0  0
   -5.2614   -4.9999    0.1019 O   0  0  0  0  0  0  0  0  0  0  0  0
   -2.8393   -5.0834    0.1675 C   0  0  0  0  0  0  0  0  0  0  0  0
   -1.5940   -4.4437    0.1328 C   0  0  0  0  0  0  0  0  0  0  0  0
   -0.4738   -5.2512    0.3524 O   0  0  0  0  0  0  0  0  0  0  0  0
   -1.5326   -3.0350   -0.0918 C   0  0  0  0  0  0  0  0  0  0  0  0
   -0.3356   -2.2948   -0.2423 C   0  0  0  0  0  0  0  0  0  0  0  0
    0.7914   -2.8546   -0.2566 O   0  0  0  0  0  0  0  0  0  0  0  0
   -1.7845    1.1772   -0.7478 C   0  0  0  0  0  0  0  0  0  0  0  0
   -0.9824    1.8340   -1.6961 C   0  0  0  0  0  0  0  0  0  0  0  0
   -1.1260    3.2062   -1.9227 C   0  0  0  0  0  0  0  0  0  0  0  0
   -0.3007    3.8251   -2.8612 O   0  0  0  0  0  0  0  0  0  0  0  0
   -2.0925    3.9377   -1.2113 C   0  0  0  0  0  0  0  0  0  0  0  0
   -2.2273    5.3075   -1.4410 O   0  0  0  0  0  0  0  0  0  0  0  0
   -2.9157    3.2825   -0.2792 C   0  0  0  0  0  0  0  0  0  0  0  0
   -3.8820    4.0003    0.4241 O   0  0  0  0  0  0  0  0  0  0  0  0
   -2.7631    1.9071   -0.0573 C   0  0  0  0  0  0  0  0  0  0  0  0
    1.8279   -0.0172    1.7757 C   0  0  2  0  0  0  0  0  0  0  0  0
    1.9163    0.8218    2.9029 O   0  0  0  0  0  0  0  0  0  0  0  0
    3.2023   -0.6059    1.3923 C   0  0  2  0  0  0  0  0  0  0  0  0
    3.8453   -1.1641    2.5120 O   0  0  0  0  0  0  0  0  0  0  0  0
    4.0904    0.4427    0.6896 C   0  0  1  0  0  0  0  0  0  0  0  0
    5.2250   -0.1869    0.1507 O   0  0  0  0  0  0  0  0  0  0  0  0
    3.5225    2.7032   -1.9133 H   0  0  0  0  0  0  0  0  0  0  0  0
    4.4029    2.9964   -0.3659 H   0  0  0  0  0  0  0  0  0  0  0  0
    5.0376    1.7967   -1.5643 H   0  0  0  0  0  0  0  0  0  0  0  0
    3.0535    0.3731   -1.2357 H   0  0  0  0  0  0  0  0  0  0  0  0
    0.3128    1.2769    0.9508 H   0  0  0  0  0  0  0  0  0  0  0  0
   -4.9004   -2.4134   -0.2036 H   0  0  0  0  0  0  0  0  0  0  0  0
   -5.3317   -6.0034    0.2242 H   0  0  0  0  0  0  0  0  0  0  0  0
   -2.8826   -6.1550    0.3194 H   0  0  0  0  0  0  0  0  0  0  0  0
    0.4376   -4.9148    0.6222 H   0  0  0  0  0  0  0  0  0  0  0  0
   -0.2503    1.2820   -2.2722 H   0  0  0  0  0  0  0  0  0  0  0  0
   -0.3628    4.8156   -3.0637 H   0  0  0  0  0  0  0  0  0  0  0  0
   -2.9107    5.8724   -0.9512 H   0  0  0  0  0  0  0  0  0  0  0  0
   -4.4880    3.5524    1.1017 H   0  0  0  0  0  0  0  0  0  0  0  0
   -3.3980    1.4108    0.6669 H   0  0  0  0  0  0  0  0  0  0  0  0
    1.1558   -0.8599    2.0472 H   0  0  0  0  0  0  0  0  0  0  0  0
    2.4333    1.6291    2.6479 H   0  0  0  0  0  0  0  0  0  0  0  0
    3.0222   -1.4330    0.6701 H   0  0  0  0  0  0  0  0  0  0  0  0
    4.1142   -0.4208    3.1123 H   0  0  0  0  0  0  0  0  0  0  0  0
    4.4031    1.2258    1.4202 H   0  0  0  0  0  0  0  0  0  0  0  0
    5.8608   -0.3248    0.9006 H   0  0  0  0  0  0  0  0  0  0  0  0
  1  2  1  0
  2  3  1  0
  3  4  1  0
  4  5  1  0
  5  6  1  0
  6  7  2  0
  7  8  1  0
  8  9  1  0
  9 10  2  0
 10 11  1  0
 11 12  1  0
 11 13  2  0
 13 14  1  0
 14 15  1  0
 14 16  2  0
 16 17  1  0
 17 18  2  0
  7 19  1  0
 19 20  2  0
 20 21  1  0
 21 22  1  0
 21 23  2  0
 23 24  1  0
 23 25  1  0
 25 26  1  0
 25 27  2  0
  4 28  1  0
 28 29  1  0
 28 30  1  0
 30 31  1  0
 30 32  1  0
 32 33  1  0
 32  2  1  0
 17  6  1  0
 27 19  1  0
 16  9  1  0
  1 34  1  0
  1 35  1  0
  1 36  1  0
  2 37  1  6
  4 38  1  1
 10 39  1  0
 12 40  1  0
 13 41  1  0
 15 42  1  0
 20 43  1  0
 22 44  1  0
 24 45  1  0
 26 46  1  0
 27 47  1  0
 28 48  1  1
 29 49  1  0
 30 50  1  6
 31 51  1  0
 32 52  1  1
 33 53  1  0
M  END
>  <LIG_ID>  (211) 
210

>  <_smiles>  (211) 
C[C@@H]1O[C@@H](OC2=C(OC3=CC(O)=CC(O)=C3C2=O)C2=CC(O)=C(O)C(O)=C2)[C@H](O)[C@H](O)[C@H]1O

>  <_name>  (211) 
Myricetin 3-O-rhamnoside

>  <_molecular_weight>  (211) 
464.376

>  <_formula>  (211) 
C21H20O12

>  <_logP>  (211) 
0.1942999999999998

>  <_molecular_wt_calculated>  (211) 
464.3789999999999

>  <_havy_atom_count>  (211) 
33

>  <_hydrogen_acceptors>  (211) 
12

>  <_hydrogen_donors>  (211) 
8

>  <_rotatable_bonds>  (211) 
12

>  <_amide_bonds>  (211) 
0

>  <_ring_count>  (211) 
4

$$$$
Quercetin 3-O-rhamnosyl-galactoside
     RDKit          3D

 73 77  0  0  0  0  0  0  0  0999 V2000
   -2.3643    2.1129   -2.5290 C   0  0  0  0  0  0  0  0  0  0  0  0
   -2.6696    1.7053   -1.0870 C   0  0  2  0  0  0  0  0  0  0  0  0
   -3.3432    0.4562   -1.1121 O   0  0  0  0  0  0  0  0  0  0  0  0
   -3.5433   -0.0674    0.1949 C   0  0  1  0  0  0  0  0  0  0  0  0
   -2.3079   -0.3126    0.8532 O   0  0  0  0  0  0  0  0  0  0  0  0
   -1.6742   -1.4850    0.3617 C   0  0  2  0  0  0  0  0  0  0  0  0
   -1.9170   -2.6578    1.3358 C   0  0  1  0  0  0  0  0  0  0  0  0
   -3.2746   -3.0146    1.3328 O   0  0  0  0  0  0  0  0  0  0  0  0
   -1.0462   -3.8704    0.9455 C   0  0  1  0  0  0  0  0  0  0  0  0
   -1.4957   -4.4184   -0.2697 O   0  0  0  0  0  0  0  0  0  0  0  0
    0.4233   -3.4136    0.8018 C   0  0  1  0  0  0  0  0  0  0  0  0
    1.3408   -4.5705    0.3877 C   0  0  0  0  0  0  0  0  0  0  0  0
    1.3321   -5.5710    1.3686 O   0  0  0  0  0  0  0  0  0  0  0  0
    0.5213   -2.3873   -0.1705 O   0  0  0  0  0  0  0  0  0  0  0  0
   -0.1590   -1.2231    0.2693 C   0  0  1  0  0  0  0  0  0  0  0  0
    0.0732   -0.1721   -0.6676 O   0  0  0  0  0  0  0  0  0  0  0  0
    1.3557    0.2676   -1.0236 C   0  0  0  0  0  0  0  0  0  0  0  0
    2.2561    0.8078   -0.0836 C   0  0  0  0  0  0  0  0  0  0  0  0
    3.4990    1.0924   -0.4522 O   0  0  0  0  0  0  0  0  0  0  0  0
    3.9395    0.9604   -1.6978 C   0  0  0  0  0  0  0  0  0  0  0  0
    5.2764    1.2608   -1.9695 C   0  0  0  0  0  0  0  0  0  0  0  0
    5.7796    1.1350   -3.2652 C   0  0  0  0  0  0  0  0  0  0  0  0
    7.1170    1.4142   -3.5378 O   0  0  0  0  0  0  0  0  0  0  0  0
    4.9352    0.7361   -4.3005 C   0  0  0  0  0  0  0  0  0  0  0  0
    3.5822    0.4619   -4.0655 C   0  0  0  0  0  0  0  0  0  0  0  0
    2.8017    0.1616   -5.1858 O   0  0  0  0  0  0  0  0  0  0  0  0
    3.0723    0.5268   -2.7344 C   0  0  0  0  0  0  0  0  0  0  0  0
    1.7635    0.1437   -2.3562 C   0  0  0  0  0  0  0  0  0  0  0  0
    0.9577   -0.3594   -3.1823 O   0  0  0  0  0  0  0  0  0  0  0  0
    1.8668    1.0874    1.3120 C   0  0  0  0  0  0  0  0  0  0  0  0
    2.6844    0.6525    2.3655 C   0  0  0  0  0  0  0  0  0  0  0  0
    2.3182    0.8989    3.6970 C   0  0  0  0  0  0  0  0  0  0  0  0
    3.1261    0.4488    4.7400 O   0  0  0  0  0  0  0  0  0  0  0  0
    1.1325    1.6004    3.9769 C   0  0  0  0  0  0  0  0  0  0  0  0
    0.7389    1.8571    5.2897 O   0  0  0  0  0  0  0  0  0  0  0  0
    0.3304    2.0554    2.9255 C   0  0  0  0  0  0  0  0  0  0  0  0
    0.6981    1.8097    1.6009 C   0  0  0  0  0  0  0  0  0  0  0  0
   -4.4183    0.8740    1.0519 C   0  0  2  0  0  0  0  0  0  0  0  0
   -5.7574    0.8520    0.6168 O   0  0  0  0  0  0  0  0  0  0  0  0
   -3.8435    2.3059    1.0540 C   0  0  2  0  0  0  0  0  0  0  0  0
   -4.7078    3.1988    1.7133 O   0  0  0  0  0  0  0  0  0  0  0  0
   -3.5167    2.7817   -0.3764 C   0  0  1  0  0  0  0  0  0  0  0  0
   -2.7945    3.9855   -0.3175 O   0  0  0  0  0  0  0  0  0  0  0  0
   -1.7846    3.0600   -2.5542 H   0  0  0  0  0  0  0  0  0  0  0  0
   -3.3062    2.2454   -3.1031 H   0  0  0  0  0  0  0  0  0  0  0  0
   -1.7568    1.3225   -3.0195 H   0  0  0  0  0  0  0  0  0  0  0  0
   -1.6939    1.6128   -0.5688 H   0  0  0  0  0  0  0  0  0  0  0  0
   -4.1240   -1.0120    0.0936 H   0  0  0  0  0  0  0  0  0  0  0  0
   -2.0221   -1.7738   -0.6608 H   0  0  0  0  0  0  0  0  0  0  0  0
   -1.6270   -2.3239    2.3611 H   0  0  0  0  0  0  0  0  0  0  0  0
   -3.4252   -3.5754    2.1382 H   0  0  0  0  0  0  0  0  0  0  0  0
   -1.1075   -4.6327    1.7580 H   0  0  0  0  0  0  0  0  0  0  0  0
   -2.2481   -5.0281   -0.0517 H   0  0  0  0  0  0  0  0  0  0  0  0
    0.7953   -3.0501    1.7896 H   0  0  0  0  0  0  0  0  0  0  0  0
    2.3770   -4.1815    0.2683 H   0  0  0  0  0  0  0  0  0  0  0  0
    1.0128   -4.9913   -0.5893 H   0  0  0  0  0  0  0  0  0  0  0  0
    1.9370   -6.2852    1.0386 H   0  0  0  0  0  0  0  0  0  0  0  0
    0.2118   -0.9078    1.2686 H   0  0  0  0  0  0  0  0  0  0  0  0
    5.9278    1.5842   -1.1667 H   0  0  0  0  0  0  0  0  0  0  0  0
    7.7561    1.7094   -2.8089 H   0  0  0  0  0  0  0  0  0  0  0  0
    5.3275    0.6666   -5.3077 H   0  0  0  0  0  0  0  0  0  0  0  0
    1.7952    0.2224   -5.2174 H   0  0  0  0  0  0  0  0  0  0  0  0
    3.5951    0.1054    2.1532 H   0  0  0  0  0  0  0  0  0  0  0  0
    3.9848   -0.0598    4.5647 H   0  0  0  0  0  0  0  0  0  0  0  0
    1.2854    1.5492    6.0851 H   0  0  0  0  0  0  0  0  0  0  0  0
   -0.5782    2.6054    3.1357 H   0  0  0  0  0  0  0  0  0  0  0  0
    0.0779    2.1911    0.8022 H   0  0  0  0  0  0  0  0  0  0  0  0
   -4.4070    0.4979    2.0985 H   0  0  0  0  0  0  0  0  0  0  0  0
   -5.7725    1.0800   -0.3485 H   0  0  0  0  0  0  0  0  0  0  0  0
   -2.8908    2.2832    1.6298 H   0  0  0  0  0  0  0  0  0  0  0  0
   -5.5150    3.3169    1.1480 H   0  0  0  0  0  0  0  0  0  0  0  0
   -4.4588    2.9323   -0.9546 H   0  0  0  0  0  0  0  0  0  0  0  0
   -3.4546    4.7094   -0.1574 H   0  0  0  0  0  0  0  0  0  0  0  0
  1  2  1  0
  2  3  1  0
  3  4  1  0
  4  5  1  0
  5  6  1  0
  6  7  1  0
  7  8  1  0
  7  9  1  0
  9 10  1  0
  9 11  1  0
 11 12  1  0
 12 13  1  0
 11 14  1  0
 14 15  1  0
 15 16  1  0
 16 17  1  0
 17 18  2  0
 18 19  1  0
 19 20  1  0
 20 21  2  0
 21 22  1  0
 22 23  1  0
 22 24  2  0
 24 25  1  0
 25 26  1  0
 25 27  2  0
 27 28  1  0
 28 29  2  0
 18 30  1  0
 30 31  2  0
 31 32  1  0
 32 33  1  0
 32 34  2  0
 34 35  1  0
 34 36  1  0
 36 37  2  0
  4 38  1  0
 38 39  1  0
 38 40  1  0
 40 41  1  0
 40 42  1  0
 42 43  1  0
 42  2  1  0
 15  6  1  0
 28 17  1  0
 37 30  1  0
 27 20  1  0
  1 44  1  0
  1 45  1  0
  1 46  1  0
  2 47  1  1
  4 48  1  6
  6 49  1  6
  7 50  1  1
  8 51  1  0
  9 52  1  1
 10 53  1  0
 11 54  1  1
 12 55  1  0
 12 56  1  0
 13 57  1  0
 15 58  1  1
 21 59  1  0
 23 60  1  0
 24 61  1  0
 26 62  1  0
 31 63  1  0
 33 64  1  0
 35 65  1  0
 36 66  1  0
 37 67  1  0
 38 68  1  1
 39 69  1  0
 40 70  1  1
 41 71  1  0
 42 72  1  6
 43 73  1  0
M  END
>  <LIG_ID>  (212) 
211

>  <_smiles>  (212) 
C[C@@H]1O[C@@H](O[C@@H]2[C@@H](O)[C@@H](O)[C@@H](CO)O[C@H]2OC2=C(OC3=CC(O)=CC(O)=C3C2=O)C2=CC(O)=C(O)C=C2)[C@H](O)[C@H](O)[C@H]1O

>  <_name>  (212) 
Quercetin 3-O-rhamnosyl-galactoside

>  <_molecular_weight>  (212) 
610.518

>  <_formula>  (212) 
C27H30O16

>  <_logP>  (212) 
-1.6871000000000005

>  <_molecular_wt_calculated>  (212) 
610.5210000000015

>  <_havy_atom_count>  (212) 
43

>  <_hydrogen_acceptors>  (212) 
16

>  <_hydrogen_donors>  (212) 
10

>  <_rotatable_bonds>  (212) 
17

>  <_amide_bonds>  (212) 
0

>  <_ring_count>  (212) 
5

$$$$
Quercetin 3-O-glucuronide
     RDKit          3D

 52 55  0  0  0  0  0  0  0  0999 V2000
   -4.0222    1.8578   -3.1406 O   0  0  0  0  0  0  0  0  0  0  0  0
   -3.5189    1.5365   -1.8659 C   0  0  0  0  0  0  0  0  0  0  0  0
   -2.0365    1.9699   -1.7026 C   0  0  0  0  0  0  0  0  0  0  0  0
   -1.3550    2.0028   -2.9335 O   0  0  0  0  0  0  0  0  0  0  0  0
   -1.2959    1.0545   -0.6996 C   0  0  0  0  0  0  0  0  0  0  0  0
   -0.1843    1.7605   -0.1510 O   0  0  0  0  0  0  0  0  0  0  0  0
    0.7125    1.1629    0.7432 C   0  0  0  0  0  0  0  0  0  0  0  0
    1.5712    0.1127    0.3531 C   0  0  0  0  0  0  0  0  0  0  0  0
    2.3404   -0.4811    1.2609 O   0  0  0  0  0  0  0  0  0  0  0  0
    2.3805   -0.1125    2.5363 C   0  0  0  0  0  0  0  0  0  0  0  0
    3.2226   -0.7976    3.4169 C   0  0  0  0  0  0  0  0  0  0  0  0
    3.2941   -0.4246    4.7601 C   0  0  0  0  0  0  0  0  0  0  0  0
    4.1402   -1.1197    5.6213 O   0  0  0  0  0  0  0  0  0  0  0  0
    2.5186    0.6418    5.2295 C   0  0  0  0  0  0  0  0  0  0  0  0
    1.6655    1.3406    4.3623 C   0  0  0  0  0  0  0  0  0  0  0  0
    0.9028    2.3982    4.8593 O   0  0  0  0  0  0  0  0  0  0  0  0
    1.5888    0.9646    2.9998 C   0  0  0  0  0  0  0  0  0  0  0  0
    0.7460    1.6057    2.0697 C   0  0  0  0  0  0  0  0  0  0  0  0
    0.0027    2.5641    2.4156 O   0  0  0  0  0  0  0  0  0  0  0  0
    1.6602   -0.3574   -1.0458 C   0  0  0  0  0  0  0  0  0  0  0  0
    1.7302    0.5520   -2.1147 C   0  0  0  0  0  0  0  0  0  0  0  0
    1.8025    0.0891   -3.4305 C   0  0  0  0  0  0  0  0  0  0  0  0
    1.8212   -1.2834   -3.6973 C   0  0  0  0  0  0  0  0  0  0  0  0
    1.8892   -1.7159   -5.0212 O   0  0  0  0  0  0  0  0  0  0  0  0
    1.7744   -2.2011   -2.6341 C   0  0  0  0  0  0  0  0  0  0  0  0
    1.7976   -3.5708   -2.8922 O   0  0  0  0  0  0  0  0  0  0  0  0
    1.7027   -1.7344   -1.3136 C   0  0  0  0  0  0  0  0  0  0  0  0
   -2.1690    0.6722    0.3496 O   0  0  0  0  0  0  0  0  0  0  0  0
   -3.1633   -0.2496   -0.0937 C   0  0  0  0  0  0  0  0  0  0  0  0
   -3.6898    0.0369   -1.5354 C   0  0  0  0  0  0  0  0  0  0  0  0
   -5.0298   -0.3674   -1.6765 O   0  0  0  0  0  0  0  0  0  0  0  0
   -2.6770   -1.6677    0.0470 C   0  0  0  0  0  0  0  0  0  0  0  0
   -1.3503   -1.9298    0.3789 O   0  0  0  0  0  0  0  0  0  0  0  0
   -3.4770   -2.6252   -0.1308 O   0  0  0  0  0  0  0  0  0  0  0  0
   -3.6602    1.2002   -3.7898 H   0  0  0  0  0  0  0  0  0  0  0  0
   -4.1180    2.1102   -1.1234 H   0  0  0  0  0  0  0  0  0  0  0  0
   -2.0370    3.0059   -1.2970 H   0  0  0  0  0  0  0  0  0  0  0  0
   -1.3363    1.0780   -3.2945 H   0  0  0  0  0  0  0  0  0  0  0  0
   -0.9214    0.1511   -1.2293 H   0  0  0  0  0  0  0  0  0  0  0  0
    3.8257   -1.6214    3.0554 H   0  0  0  0  0  0  0  0  0  0  0  0
    4.2162   -0.8747    6.6017 H   0  0  0  0  0  0  0  0  0  0  0  0
    2.5778    0.9282    6.2721 H   0  0  0  0  0  0  0  0  0  0  0  0
    0.9482    2.6770    5.8325 H   0  0  0  0  0  0  0  0  0  0  0  0
    1.7332    1.6191   -1.9322 H   0  0  0  0  0  0  0  0  0  0  0  0
    1.8464    0.7995   -4.2463 H   0  0  0  0  0  0  0  0  0  0  0  0
    1.9055   -2.6987   -5.2659 H   0  0  0  0  0  0  0  0  0  0  0  0
    1.7632   -4.2527   -2.1434 H   0  0  0  0  0  0  0  0  0  0  0  0
    1.6599   -2.4462   -0.4979 H   0  0  0  0  0  0  0  0  0  0  0  0
   -4.0164   -0.1378    0.6100 H   0  0  0  0  0  0  0  0  0  0  0  0
   -3.0846   -0.5453   -2.2666 H   0  0  0  0  0  0  0  0  0  0  0  0
   -5.5826    0.2038   -1.0816 H   0  0  0  0  0  0  0  0  0  0  0  0
   -1.0146   -2.8809    0.4713 H   0  0  0  0  0  0  0  0  0  0  0  0
  1  2  1  0
  2  3  1  0
  3  4  1  0
  3  5  1  0
  5  6  1  0
  6  7  1  0
  7  8  2  0
  8  9  1  0
  9 10  1  0
 10 11  2  0
 11 12  1  0
 12 13  1  0
 12 14  2  0
 14 15  1  0
 15 16  1  0
 15 17  2  0
 17 18  1  0
 18 19  2  0
  8 20  1  0
 20 21  2  0
 21 22  1  0
 22 23  2  0
 23 24  1  0
 23 25  1  0
 25 26  1  0
 25 27  2  0
  5 28  1  0
 28 29  1  0
 29 30  1  0
 30 31  1  0
 29 32  1  0
 32 33  1  0
 32 34  2  0
 30  2  1  0
 18  7  1  0
 27 20  1  0
 17 10  1  0
  1 35  1  0
  2 36  1  0
  3 37  1  0
  4 38  1  0
  5 39  1  0
 11 40  1  0
 13 41  1  0
 14 42  1  0
 16 43  1  0
 21 44  1  0
 22 45  1  0
 24 46  1  0
 26 47  1  0
 27 48  1  0
 29 49  1  0
 30 50  1  0
 31 51  1  0
 33 52  1  0
M  END
>  <LIG_ID>  (213) 
212

>  <_smiles>  (213) 
OC1C(O)C(OC2=C(OC3=CC(O)=CC(O)=C3C2=O)C2=CC=C(O)C(O)=C2)OC(C1O)C(O)=O

>  <_name>  (213) 
Quercetin 3-O-glucuronide

>  <_molecular_weight>  (213) 
478.36

>  <_formula>  (213) 
C21H18O13

>  <_logP>  (213) 
-0.4466000000000006

>  <_molecular_wt_calculated>  (213) 
478.36199999999997

>  <_havy_atom_count>  (213) 
34

>  <_hydrogen_acceptors>  (213) 
13

>  <_hydrogen_donors>  (213) 
8

>  <_rotatable_bonds>  (213) 
11

>  <_amide_bonds>  (213) 
0

>  <_ring_count>  (213) 
4

$$$$
Isorhamnetin 3-O-glucuronide
     RDKit          3D

 55 58  0  0  0  0  0  0  0  0999 V2000
    2.3467    0.4552    0.1942 C   0  0  2  0  0  0  0  0  0  0  0  0
    0.9813    0.0338    0.1521 O   0  0  0  0  0  0  0  0  0  0  0  0
   -0.1462    0.7918   -0.2308 C   0  0  0  0  0  0  0  0  0  0  0  0
   -1.4212    0.2330   -0.0138 C   0  0  0  0  0  0  0  0  0  0  0  0
   -2.5137    0.9294   -0.2982 O   0  0  0  0  0  0  0  0  0  0  0  0
   -2.4906    2.1408   -0.8344 C   0  0  0  0  0  0  0  0  0  0  0  0
   -3.7055    2.7891   -1.0707 C   0  0  0  0  0  0  0  0  0  0  0  0
   -3.7284    4.0687   -1.6195 C   0  0  0  0  0  0  0  0  0  0  0  0
   -4.9497    4.7065   -1.8257 O   0  0  0  0  0  0  0  0  0  0  0  0
   -2.5294    4.6953   -1.9671 C   0  0  0  0  0  0  0  0  0  0  0  0
   -1.2994    4.0531   -1.7788 C   0  0  0  0  0  0  0  0  0  0  0  0
   -0.1677    4.7187   -2.2590 O   0  0  0  0  0  0  0  0  0  0  0  0
   -1.2621    2.7700   -1.1535 C   0  0  0  0  0  0  0  0  0  0  0  0
   -0.0739    2.0925   -0.7856 C   0  0  0  0  0  0  0  0  0  0  0  0
    1.0411    2.6583   -0.9085 O   0  0  0  0  0  0  0  0  0  0  0  0
   -1.5967   -1.1126    0.5777 C   0  0  0  0  0  0  0  0  0  0  0  0
   -2.5435   -1.3022    1.5969 C   0  0  0  0  0  0  0  0  0  0  0  0
   -2.7409   -2.5757    2.1682 C   0  0  0  0  0  0  0  0  0  0  0  0
   -3.6707   -2.7923    3.1979 O   0  0  0  0  0  0  0  0  0  0  0  0
   -4.4966   -1.7814    3.7667 C   0  0  0  0  0  0  0  0  0  0  0  0
   -1.9864   -3.6647    1.6949 C   0  0  0  0  0  0  0  0  0  0  0  0
   -2.1476   -4.9414    2.2329 O   0  0  0  0  0  0  0  0  0  0  0  0
   -1.0597   -3.4788    0.6652 C   0  0  0  0  0  0  0  0  0  0  0  0
   -0.8706   -2.2153    0.1044 C   0  0  0  0  0  0  0  0  0  0  0  0
    2.8378    0.7147   -1.1207 O   0  0  0  0  0  0  0  0  0  0  0  0
    3.3813   -0.4223   -1.7738 C   0  0  2  0  0  0  0  0  0  0  0  0
    2.3077   -1.4387   -2.0908 C   0  0  0  0  0  0  0  0  0  0  0  0
    1.2790   -1.0846   -2.9585 O   0  0  0  0  0  0  0  0  0  0  0  0
    2.3185   -2.5896   -1.5760 O   0  0  0  0  0  0  0  0  0  0  0  0
    4.6320   -0.9883   -1.0277 C   0  0  1  0  0  0  0  0  0  0  0  0
    5.8079   -0.4797   -1.6061 O   0  0  0  0  0  0  0  0  0  0  0  0
    4.6240   -0.6123    0.4655 C   0  0  2  0  0  0  0  0  0  0  0  0
    5.3859   -1.5483    1.1850 O   0  0  0  0  0  0  0  0  0  0  0  0
    3.1802   -0.5849    0.9875 C   0  0  1  0  0  0  0  0  0  0  0  0
    3.1357   -0.3151    2.3678 O   0  0  0  0  0  0  0  0  0  0  0  0
    2.3978    1.4131    0.7553 H   0  0  0  0  0  0  0  0  0  0  0  0
   -4.6369    2.2995   -0.8133 H   0  0  0  0  0  0  0  0  0  0  0  0
   -5.0013    5.6361   -2.2258 H   0  0  0  0  0  0  0  0  0  0  0  0
   -2.5527    5.6785   -2.4210 H   0  0  0  0  0  0  0  0  0  0  0  0
    0.7075    4.2690   -2.4837 H   0  0  0  0  0  0  0  0  0  0  0  0
   -3.1122   -0.4514    1.9484 H   0  0  0  0  0  0  0  0  0  0  0  0
   -3.8688   -0.9891    4.2264 H   0  0  0  0  0  0  0  0  0  0  0  0
   -5.1312   -2.2338    4.5559 H   0  0  0  0  0  0  0  0  0  0  0  0
   -5.1563   -1.3441    2.9877 H   0  0  0  0  0  0  0  0  0  0  0  0
   -2.8049   -5.1339    2.9791 H   0  0  0  0  0  0  0  0  0  0  0  0
   -0.4893   -4.3202    0.2922 H   0  0  0  0  0  0  0  0  0  0  0  0
   -0.1746   -2.1044   -0.7136 H   0  0  0  0  0  0  0  0  0  0  0  0
    3.7279   -0.0699   -2.7694 H   0  0  0  0  0  0  0  0  0  0  0  0
    0.5415   -1.7404   -3.1865 H   0  0  0  0  0  0  0  0  0  0  0  0
    4.6541   -2.1006   -1.1070 H   0  0  0  0  0  0  0  0  0  0  0  0
    5.9541   -0.9804   -2.4512 H   0  0  0  0  0  0  0  0  0  0  0  0
    5.0660    0.4076    0.5802 H   0  0  0  0  0  0  0  0  0  0  0  0
    5.6689   -1.1056    2.0273 H   0  0  0  0  0  0  0  0  0  0  0  0
    2.7403   -1.5950    0.8357 H   0  0  0  0  0  0  0  0  0  0  0  0
    3.6114    0.5423    2.5255 H   0  0  0  0  0  0  0  0  0  0  0  0
  1  2  1  0
  2  3  1  0
  3  4  2  0
  4  5  1  0
  5  6  1  0
  6  7  2  0
  7  8  1  0
  8  9  1  0
  8 10  2  0
 10 11  1  0
 11 12  1  0
 11 13  2  0
 13 14  1  0
 14 15  2  0
  4 16  1  0
 16 17  2  0
 17 18  1  0
 18 19  1  0
 19 20  1  0
 18 21  2  0
 21 22  1  0
 21 23  1  0
 23 24  2  0
  1 25  1  0
 25 26  1  0
 26 27  1  0
 27 28  1  0
 27 29  2  0
 26 30  1  0
 30 31  1  0
 30 32  1  0
 32 33  1  0
 32 34  1  0
 34 35  1  0
 34  1  1  0
 14  3  1  0
 24 16  1  0
 13  6  1  0
  1 36  1  1
  7 37  1  0
  9 38  1  0
 10 39  1  0
 12 40  1  0
 17 41  1  0
 20 42  1  0
 20 43  1  0
 20 44  1  0
 22 45  1  0
 23 46  1  0
 24 47  1  0
 26 48  1  6
 28 49  1  0
 30 50  1  1
 31 51  1  0
 32 52  1  6
 33 53  1  0
 34 54  1  1
 35 55  1  0
M  END
>  <LIG_ID>  (214) 
213

>  <_smiles>  (214) 
[H][C@@]1(OC2=C(OC3=CC(O)=CC(O)=C3C2=O)C2=CC(OC)=C(O)C=C2)O[C@]([H])(C(O)=O)[C@@]([H])(O)[C@]([H])(O)[C@@]1([H])O

>  <_name>  (214) 
Isorhamnetin 3-O-glucuronide

>  <_molecular_weight>  (214) 
492.386

>  <_formula>  (214) 
C22H20O13

>  <_logP>  (214) 
-0.14360000000000012

>  <_molecular_wt_calculated>  (214) 
492.38899999999995

>  <_havy_atom_count>  (214) 
35

>  <_hydrogen_acceptors>  (214) 
13

>  <_hydrogen_donors>  (214) 
7

>  <_rotatable_bonds>  (214) 
12

>  <_amide_bonds>  (214) 
0

>  <_ring_count>  (214) 
4

$$$$
Myricetin 3-O-arabinoside
     RDKit          3D

 50 53  0  0  0  0  0  0  0  0999 V2000
    5.8919    1.8416   -0.1346 O   0  0  0  0  0  0  0  0  0  0  0  0
    4.5834    2.1284   -0.5497 C   0  0  0  0  0  0  0  0  0  0  0  0
    3.8240    0.8390   -0.8905 C   0  0  0  0  0  0  0  0  0  0  0  0
    2.5221    1.1599   -1.3341 O   0  0  0  0  0  0  0  0  0  0  0  0
    1.6093    0.3700   -0.6063 C   0  0  0  0  0  0  0  0  0  0  0  0
    0.6372   -0.1716   -1.5014 O   0  0  0  0  0  0  0  0  0  0  0  0
   -0.5221   -0.8205   -1.0566 C   0  0  0  0  0  0  0  0  0  0  0  0
   -1.5418   -0.1380   -0.3585 C   0  0  0  0  0  0  0  0  0  0  0  0
   -2.5805   -0.8174    0.1193 O   0  0  0  0  0  0  0  0  0  0  0  0
   -2.7422   -2.1237   -0.0579 C   0  0  0  0  0  0  0  0  0  0  0  0
   -1.7935   -2.8734   -0.7922 C   0  0  0  0  0  0  0  0  0  0  0  0
   -2.0034   -4.2613   -0.9751 C   0  0  0  0  0  0  0  0  0  0  0  0
   -1.0928   -5.0366   -1.6941 O   0  0  0  0  0  0  0  0  0  0  0  0
   -3.1415   -4.8707   -0.4262 C   0  0  0  0  0  0  0  0  0  0  0  0
   -4.0702   -4.1221    0.3004 C   0  0  0  0  0  0  0  0  0  0  0  0
   -5.1912   -4.7520    0.8364 O   0  0  0  0  0  0  0  0  0  0  0  0
   -3.8687   -2.7501    0.4831 C   0  0  0  0  0  0  0  0  0  0  0  0
   -0.6695   -2.1907   -1.2987 C   0  0  0  0  0  0  0  0  0  0  0  0
    0.2203   -2.7974   -1.9549 O   0  0  0  0  0  0  0  0  0  0  0  0
   -1.5131    1.3256   -0.1436 C   0  0  0  0  0  0  0  0  0  0  0  0
   -1.8962    1.8510    1.0975 C   0  0  0  0  0  0  0  0  0  0  0  0
   -1.8844    3.2309    1.3301 C   0  0  0  0  0  0  0  0  0  0  0  0
   -2.2677    3.6780    2.5965 O   0  0  0  0  0  0  0  0  0  0  0  0
   -1.4920    4.1119    0.2933 C   0  0  0  0  0  0  0  0  0  0  0  0
   -1.4516    5.4977    0.4682 O   0  0  0  0  0  0  0  0  0  0  0  0
   -1.1307    3.5846   -0.9604 C   0  0  0  0  0  0  0  0  0  0  0  0
   -0.7499    4.4202   -2.0107 O   0  0  0  0  0  0  0  0  0  0  0  0
   -1.1501    2.2041   -1.1751 C   0  0  0  0  0  0  0  0  0  0  0  0
    2.3750   -0.7406    0.0946 C   0  0  0  0  0  0  0  0  0  0  0  0
    1.7658   -1.0740    1.3142 O   0  0  0  0  0  0  0  0  0  0  0  0
    3.7243   -0.1099    0.3030 C   0  0  0  0  0  0  0  0  0  0  0  0
    4.7490   -1.0686    0.2661 O   0  0  0  0  0  0  0  0  0  0  0  0
    6.4010    1.5956   -0.9507 H   0  0  0  0  0  0  0  0  0  0  0  0
    4.0579    2.6695    0.2662 H   0  0  0  0  0  0  0  0  0  0  0  0
    4.6023    2.7998   -1.4381 H   0  0  0  0  0  0  0  0  0  0  0  0
    4.3493    0.3296   -1.7299 H   0  0  0  0  0  0  0  0  0  0  0  0
    1.1213    1.0254    0.1475 H   0  0  0  0  0  0  0  0  0  0  0  0
   -1.2312   -6.0310   -1.8317 H   0  0  0  0  0  0  0  0  0  0  0  0
   -3.3053   -5.9323   -0.5636 H   0  0  0  0  0  0  0  0  0  0  0  0
   -5.8841   -4.2382    1.3683 H   0  0  0  0  0  0  0  0  0  0  0  0
   -4.5895   -2.1678    1.0439 H   0  0  0  0  0  0  0  0  0  0  0  0
   -2.1929    1.1841    1.8985 H   0  0  0  0  0  0  0  0  0  0  0  0
   -2.3028    4.6497    2.8680 H   0  0  0  0  0  0  0  0  0  0  0  0
   -1.6841    5.9679    1.3308 H   0  0  0  0  0  0  0  0  0  0  0  0
   -0.7169    5.4281   -1.9159 H   0  0  0  0  0  0  0  0  0  0  0  0
   -0.8903    1.8213   -2.1542 H   0  0  0  0  0  0  0  0  0  0  0  0
    2.4531   -1.6316   -0.5735 H   0  0  0  0  0  0  0  0  0  0  0  0
    2.1850   -1.9220    1.6145 H   0  0  0  0  0  0  0  0  0  0  0  0
    3.7439    0.4575    1.2649 H   0  0  0  0  0  0  0  0  0  0  0  0
    4.7343   -1.5301    1.1447 H   0  0  0  0  0  0  0  0  0  0  0  0
  1  2  1  0
  2  3  1  0
  3  4  1  0
  4  5  1  0
  5  6  1  0
  6  7  1  0
  7  8  2  0
  8  9  1  0
  9 10  1  0
 10 11  2  0
 11 12  1  0
 12 13  1  0
 12 14  2  0
 14 15  1  0
 15 16  1  0
 15 17  2  0
 11 18  1  0
 18 19  2  0
  8 20  1  0
 20 21  2  0
 21 22  1  0
 22 23  1  0
 22 24  2  0
 24 25  1  0
 24 26  1  0
 26 27  1  0
 26 28  2  0
  5 29  1  0
 29 30  1  0
 29 31  1  0
 31 32  1  0
 31  3  1  0
 18  7  1  0
 28 20  1  0
 17 10  1  0
  1 33  1  0
  2 34  1  0
  2 35  1  0
  3 36  1  0
  5 37  1  0
 13 38  1  0
 14 39  1  0
 16 40  1  0
 17 41  1  0
 21 42  1  0
 23 43  1  0
 25 44  1  0
 27 45  1  0
 28 46  1  0
 29 47  1  0
 30 48  1  0
 31 49  1  0
 32 50  1  0
M  END
>  <LIG_ID>  (215) 
214

>  <_smiles>  (215) 
OCC1OC(OC2=C(OC3=C(C(O)=CC(O)=C3)C2=O)C2=CC(O)=C(O)C(O)=C2)C(O)C1O

>  <_name>  (215) 
Myricetin 3-O-arabinoside

>  <_molecular_weight>  (215) 
450.35

>  <_formula>  (215) 
C20H18O12

>  <_logP>  (215) 
-0.19420000000000037

>  <_molecular_wt_calculated>  (215) 
450.3519999999999

>  <_havy_atom_count>  (215) 
32

>  <_hydrogen_acceptors>  (215) 
12

>  <_hydrogen_donors>  (215) 
8

>  <_rotatable_bonds>  (215) 
12

>  <_amide_bonds>  (215) 
0

>  <_ring_count>  (215) 
4

$$$$
Quercetin 7,4'-O-diglucoside
     RDKit          3D

 74 78  0  0  0  0  0  0  0  0999 V2000
    8.8066    1.6311    3.3329 O   0  0  0  0  0  0  0  0  0  0  0  0
    9.3246    0.4553    2.7727 C   0  0  0  0  0  0  0  0  0  0  0  0
    8.6929    0.1931    1.4004 C   0  0  1  0  0  0  0  0  0  0  0  0
    7.2853    0.1435    1.5426 O   0  0  0  0  0  0  0  0  0  0  0  0
    6.6753   -0.4276    0.3931 C   0  0  1  0  0  0  0  0  0  0  0  0
    5.2687   -0.1947    0.4992 O   0  0  0  0  0  0  0  0  0  0  0  0
    4.2633   -0.8391   -0.2414 C   0  0  0  0  0  0  0  0  0  0  0  0
    4.5248   -1.9123   -1.1116 C   0  0  0  0  0  0  0  0  0  0  0  0
    3.4872   -2.5199   -1.8342 C   0  0  0  0  0  0  0  0  0  0  0  0
    3.7830   -3.5806   -2.6918 O   0  0  0  0  0  0  0  0  0  0  0  0
    2.1599   -2.0541   -1.6858 C   0  0  0  0  0  0  0  0  0  0  0  0
    1.0658   -2.6057   -2.3838 C   0  0  0  0  0  0  0  0  0  0  0  0
    1.2279   -3.5581   -3.1945 O   0  0  0  0  0  0  0  0  0  0  0  0
   -0.2211   -2.0834   -2.1810 C   0  0  0  0  0  0  0  0  0  0  0  0
   -1.3142   -2.5790   -2.8965 O   0  0  0  0  0  0  0  0  0  0  0  0
   -0.3901   -1.0282   -1.2639 C   0  0  0  0  0  0  0  0  0  0  0  0
    0.6677   -0.5240   -0.6352 O   0  0  0  0  0  0  0  0  0  0  0  0
    1.9034   -0.9807   -0.8032 C   0  0  0  0  0  0  0  0  0  0  0  0
    2.9500   -0.3870   -0.0932 C   0  0  0  0  0  0  0  0  0  0  0  0
   -1.7176   -0.4365   -0.9810 C   0  0  0  0  0  0  0  0  0  0  0  0
   -1.8384    0.9534   -0.8404 C   0  0  0  0  0  0  0  0  0  0  0  0
   -3.0756    1.5384   -0.5500 C   0  0  0  0  0  0  0  0  0  0  0  0
   -3.1496    2.9265   -0.4329 O   0  0  0  0  0  0  0  0  0  0  0  0
   -4.2175    0.7340   -0.3795 C   0  0  0  0  0  0  0  0  0  0  0  0
   -5.4432    1.3645   -0.0944 O   0  0  0  0  0  0  0  0  0  0  0  0
   -6.6975    0.7249    0.1566 C   0  0  2  0  0  0  0  0  0  0  0  0
   -7.7192    1.6377   -0.2126 O   0  0  0  0  0  0  0  0  0  0  0  0
   -9.0350    1.2977    0.2277 C   0  0  2  0  0  0  0  0  0  0  0  0
   -9.5346    2.4013    1.1760 C   0  0  0  0  0  0  0  0  0  0  0  0
  -10.9130    2.2730    1.4085 O   0  0  0  0  0  0  0  0  0  0  0  0
   -9.1960   -0.1253    0.8447 C   0  0  1  0  0  0  0  0  0  0  0  0
   -9.0959   -1.0931   -0.1709 O   0  0  0  0  0  0  0  0  0  0  0  0
   -8.1236   -0.4094    1.9238 C   0  0  2  0  0  0  0  0  0  0  0  0
   -8.6039   -0.0501    3.1951 O   0  0  0  0  0  0  0  0  0  0  0  0
   -6.8077    0.3488    1.6509 C   0  0  1  0  0  0  0  0  0  0  0  0
   -5.7246   -0.4527    2.0497 O   0  0  0  0  0  0  0  0  0  0  0  0
   -4.0903   -0.6645   -0.5006 C   0  0  0  0  0  0  0  0  0  0  0  0
   -2.8516   -1.2415   -0.7905 C   0  0  0  0  0  0  0  0  0  0  0  0
    7.2114    0.1879   -0.9398 C   0  0  2  0  0  0  0  0  0  0  0  0
    8.0894   -0.7123   -1.5685 O   0  0  0  0  0  0  0  0  0  0  0  0
    7.9623    1.5046   -0.6659 C   0  0  1  0  0  0  0  0  0  0  0  0
    7.0657    2.4697   -0.1739 O   0  0  0  0  0  0  0  0  0  0  0  0
    9.0918    1.2838    0.3658 C   0  0  2  0  0  0  0  0  0  0  0  0
   10.2627    0.8946   -0.3068 O   0  0  0  0  0  0  0  0  0  0  0  0
    9.2593    1.7409    4.2091 H   0  0  0  0  0  0  0  0  0  0  0  0
   10.4298    0.5371    2.6706 H   0  0  0  0  0  0  0  0  0  0  0  0
    9.0990   -0.4044    3.4429 H   0  0  0  0  0  0  0  0  0  0  0  0
    9.0771   -0.7992    1.0609 H   0  0  0  0  0  0  0  0  0  0  0  0
    6.8568   -1.5254    0.4211 H   0  0  0  0  0  0  0  0  0  0  0  0
    5.5275   -2.2910   -1.2344 H   0  0  0  0  0  0  0  0  0  0  0  0
    4.7290   -3.9246   -2.8090 H   0  0  0  0  0  0  0  0  0  0  0  0
   -1.2262   -3.3304   -3.5700 H   0  0  0  0  0  0  0  0  0  0  0  0
    2.7414    0.4365    0.5790 H   0  0  0  0  0  0  0  0  0  0  0  0
   -0.9709    1.5901   -0.9681 H   0  0  0  0  0  0  0  0  0  0  0  0
   -4.0165    3.4062   -0.2223 H   0  0  0  0  0  0  0  0  0  0  0  0
   -6.7879   -0.1709   -0.4922 H   0  0  0  0  0  0  0  0  0  0  0  0
   -9.6918    1.3413   -0.6689 H   0  0  0  0  0  0  0  0  0  0  0  0
   -9.3598    3.3884    0.6970 H   0  0  0  0  0  0  0  0  0  0  0  0
   -8.9593    2.3996    2.1294 H   0  0  0  0  0  0  0  0  0  0  0  0
  -11.0199    1.8243    2.2874 H   0  0  0  0  0  0  0  0  0  0  0  0
  -10.2042   -0.2225    1.3110 H   0  0  0  0  0  0  0  0  0  0  0  0
   -9.9480   -1.0700   -0.6804 H   0  0  0  0  0  0  0  0  0  0  0  0
   -7.9085   -1.5057    1.9186 H   0  0  0  0  0  0  0  0  0  0  0  0
   -9.2422   -0.7575    3.4747 H   0  0  0  0  0  0  0  0  0  0  0  0
   -6.8093    1.2991    2.2380 H   0  0  0  0  0  0  0  0  0  0  0  0
   -4.9990    0.1583    2.3429 H   0  0  0  0  0  0  0  0  0  0  0  0
   -4.9326   -1.3246   -0.3576 H   0  0  0  0  0  0  0  0  0  0  0  0
   -2.7779   -2.3203   -0.8393 H   0  0  0  0  0  0  0  0  0  0  0  0
    6.3650    0.4143   -1.6307 H   0  0  0  0  0  0  0  0  0  0  0  0
    7.5319   -1.3637   -2.0674 H   0  0  0  0  0  0  0  0  0  0  0  0
    8.4098    1.8785   -1.6175 H   0  0  0  0  0  0  0  0  0  0  0  0
    6.5238    2.7804   -0.9457 H   0  0  0  0  0  0  0  0  0  0  0  0
    9.2747    2.2607    0.8737 H   0  0  0  0  0  0  0  0  0  0  0  0
   11.0191    1.0506    0.3168 H   0  0  0  0  0  0  0  0  0  0  0  0
  1  2  1  0
  2  3  1  0
  3  4  1  0
  4  5  1  0
  5  6  1  0
  6  7  1  0
  7  8  2  0
  8  9  1  0
  9 10  1  0
  9 11  2  0
 11 12  1  0
 12 13  2  0
 12 14  1  0
 14 15  1  0
 14 16  2  0
 16 17  1  0
 17 18  1  0
 18 19  2  0
 16 20  1  0
 20 21  2  0
 21 22  1  0
 22 23  1  0
 22 24  2  0
 24 25  1  0
 25 26  1  0
 26 27  1  0
 27 28  1  0
 28 29  1  0
 29 30  1  0
 28 31  1  0
 31 32  1  0
 31 33  1  0
 33 34  1  0
 33 35  1  0
 35 36  1  0
 24 37  1  0
 37 38  2  0
  5 39  1  0
 39 40  1  0
 39 41  1  0
 41 42  1  0
 41 43  1  0
 43 44  1  0
 43  3  1  0
 19  7  1  0
 38 20  1  0
 18 11  1  0
 35 26  1  0
  1 45  1  0
  2 46  1  0
  2 47  1  0
  3 48  1  6
  5 49  1  6
  8 50  1  0
 10 51  1  0
 15 52  1  0
 19 53  1  0
 21 54  1  0
 23 55  1  0
 26 56  1  6
 28 57  1  6
 29 58  1  0
 29 59  1  0
 30 60  1  0
 31 61  1  1
 32 62  1  0
 33 63  1  1
 34 64  1  0
 35 65  1  1
 36 66  1  0
 37 67  1  0
 38 68  1  0
 39 69  1  6
 40 70  1  0
 41 71  1  6
 42 72  1  0
 43 73  1  1
 44 74  1  0
M  END
>  <LIG_ID>  (216) 
215

>  <_smiles>  (216) 
OC[C@H]1O[C@@H](OC2=CC(O)=C3C(=O)C(O)=C(OC3=C2)C2=CC(O)=C(O[C@@H]3O[C@H](CO)[C@@H](O)[C@H](O)[C@H]3O)C=C2)[C@H](O)[C@@H](O)[C@@H]1O

>  <_name>  (216) 
Quercetin 7,4'-O-diglucoside

>  <_molecular_weight>  (216) 
626.517

>  <_formula>  (216) 
C27H30O17

>  <_logP>  (216) 
-3.0658

>  <_molecular_wt_calculated>  (216) 
626.5200000000015

>  <_havy_atom_count>  (216) 
44

>  <_hydrogen_acceptors>  (216) 
17

>  <_hydrogen_donors>  (216) 
11

>  <_rotatable_bonds>  (216) 
18

>  <_amide_bonds>  (216) 
0

>  <_ring_count>  (216) 
5

$$$$
Quercetin 4'-O-glucoside
     RDKit          3D

 53 56  0  0  0  0  0  0  0  0999 V2000
   -4.1437   -1.8210    0.8146 O   0  0  0  0  0  0  0  0  0  0  0  0
   -5.1395   -1.3475    1.6785 C   0  0  0  0  0  0  0  0  0  0  0  0
   -5.6078    0.0716    1.2875 C   0  0  1  0  0  0  0  0  0  0  0  0
   -4.7330    1.0888    1.7609 O   0  0  0  0  0  0  0  0  0  0  0  0
   -3.5037    1.2019    1.0525 C   0  0  1  0  0  0  0  0  0  0  0  0
   -2.5639    0.2613    1.5836 O   0  0  0  0  0  0  0  0  0  0  0  0
   -1.2214    0.1118    1.1947 C   0  0  0  0  0  0  0  0  0  0  0  0
   -0.3849    1.1929    0.8358 C   0  0  0  0  0  0  0  0  0  0  0  0
   -0.8356    2.5079    0.9171 O   0  0  0  0  0  0  0  0  0  0  0  0
    0.9334    0.9453    0.4234 C   0  0  0  0  0  0  0  0  0  0  0  0
    1.4394   -0.3622    0.3772 C   0  0  0  0  0  0  0  0  0  0  0  0
    0.6209   -1.4236    0.7928 C   0  0  0  0  0  0  0  0  0  0  0  0
   -0.6939   -1.1845    1.1960 C   0  0  0  0  0  0  0  0  0  0  0  0
    2.8431   -0.5882   -0.0372 C   0  0  0  0  0  0  0  0  0  0  0  0
    3.2124   -1.6548   -0.8748 C   0  0  0  0  0  0  0  0  0  0  0  0
    2.2370   -2.5094   -1.3961 O   0  0  0  0  0  0  0  0  0  0  0  0
    4.5662   -1.8221   -1.2076 C   0  0  0  0  0  0  0  0  0  0  0  0
    4.8837   -2.7458   -2.0015 O   0  0  0  0  0  0  0  0  0  0  0  0
    5.5352   -0.9315   -0.6859 C   0  0  0  0  0  0  0  0  0  0  0  0
    6.9389   -1.0308   -0.9246 C   0  0  0  0  0  0  0  0  0  0  0  0
    7.5451   -2.1077   -1.5783 O   0  0  0  0  0  0  0  0  0  0  0  0
    7.7908   -0.0189   -0.4649 C   0  0  0  0  0  0  0  0  0  0  0  0
    7.2974    1.0545    0.2808 C   0  0  0  0  0  0  0  0  0  0  0  0
    8.1543    2.0489    0.7478 O   0  0  0  0  0  0  0  0  0  0  0  0
    5.9371    1.1288    0.5696 C   0  0  0  0  0  0  0  0  0  0  0  0
    5.0571    0.1537    0.0938 C   0  0  0  0  0  0  0  0  0  0  0  0
    3.7665    0.2685    0.3830 O   0  0  0  0  0  0  0  0  0  0  0  0
   -3.6398    1.0652   -0.4909 C   0  0  2  0  0  0  0  0  0  0  0  0
   -2.8165    2.0150   -1.1200 O   0  0  0  0  0  0  0  0  0  0  0  0
   -5.0967    1.2782   -0.9155 C   0  0  1  0  0  0  0  0  0  0  0  0
   -5.2263    1.1391   -2.3078 O   0  0  0  0  0  0  0  0  0  0  0  0
   -5.9777    0.2282   -0.2202 C   0  0  2  0  0  0  0  0  0  0  0  0
   -7.3379    0.5524   -0.3782 O   0  0  0  0  0  0  0  0  0  0  0  0
   -3.8962   -2.7229    1.1464 H   0  0  0  0  0  0  0  0  0  0  0  0
   -6.0125   -2.0375    1.6368 H   0  0  0  0  0  0  0  0  0  0  0  0
   -4.7588   -1.3336    2.7244 H   0  0  0  0  0  0  0  0  0  0  0  0
   -6.5469    0.2116    1.8672 H   0  0  0  0  0  0  0  0  0  0  0  0
   -3.1487    2.2258    1.2801 H   0  0  0  0  0  0  0  0  0  0  0  0
   -0.2431    3.2920    0.6700 H   0  0  0  0  0  0  0  0  0  0  0  0
    1.5659    1.7781    0.1397 H   0  0  0  0  0  0  0  0  0  0  0  0
    1.0014   -2.4364    0.8265 H   0  0  0  0  0  0  0  0  0  0  0  0
   -1.3135   -2.0172    1.5038 H   0  0  0  0  0  0  0  0  0  0  0  0
    2.4633   -3.2838   -2.0085 H   0  0  0  0  0  0  0  0  0  0  0  0
    7.1228   -3.0151   -1.7042 H   0  0  0  0  0  0  0  0  0  0  0  0
    8.8532   -0.0860   -0.6651 H   0  0  0  0  0  0  0  0  0  0  0  0
    9.1494    2.0233    0.5577 H   0  0  0  0  0  0  0  0  0  0  0  0
    5.5584    1.9560    1.1576 H   0  0  0  0  0  0  0  0  0  0  0  0
   -3.3270    0.0373   -0.7937 H   0  0  0  0  0  0  0  0  0  0  0  0
   -2.5649    1.6442   -2.0060 H   0  0  0  0  0  0  0  0  0  0  0  0
   -5.4204    2.2994   -0.5989 H   0  0  0  0  0  0  0  0  0  0  0  0
   -5.0037    2.0194   -2.7093 H   0  0  0  0  0  0  0  0  0  0  0  0
   -5.8194   -0.7431   -0.7388 H   0  0  0  0  0  0  0  0  0  0  0  0
   -7.4953    1.4223    0.0748 H   0  0  0  0  0  0  0  0  0  0  0  0
  1  2  1  0
  2  3  1  0
  3  4  1  0
  4  5  1  0
  5  6  1  0
  6  7  1  0
  7  8  2  0
  8  9  1  0
  8 10  1  0
 10 11  2  0
 11 12  1  0
 12 13  2  0
 11 14  1  0
 14 15  2  0
 15 16  1  0
 15 17  1  0
 17 18  2  0
 17 19  1  0
 19 20  2  0
 20 21  1  0
 20 22  1  0
 22 23  2  0
 23 24  1  0
 23 25  1  0
 25 26  2  0
 26 27  1  0
  5 28  1  0
 28 29  1  0
 28 30  1  0
 30 31  1  0
 30 32  1  0
 32 33  1  0
 32  3  1  0
 13  7  1  0
 27 14  1  0
 26 19  1  0
  1 34  1  0
  2 35  1  0
  2 36  1  0
  3 37  1  1
  5 38  1  6
  9 39  1  0
 10 40  1  0
 12 41  1  0
 13 42  1  0
 16 43  1  0
 21 44  1  0
 22 45  1  0
 24 46  1  0
 25 47  1  0
 28 48  1  6
 29 49  1  0
 30 50  1  1
 31 51  1  0
 32 52  1  6
 33 53  1  0
M  END
>  <LIG_ID>  (217) 
216

>  <_smiles>  (217) 
OC[C@H]1O[C@@H](OC2=C(O)C=C(C=C2)C2=C(O)C(=O)C3=C(O)C=C(O)C=C3O2)[C@H](O)[C@@H](O)[C@@H]1O

>  <_name>  (217) 
Quercetin 4'-O-glucoside

>  <_molecular_weight>  (217) 
464.376

>  <_formula>  (217) 
C21H20O12

>  <_logP>  (217) 
-0.5389000000000006

>  <_molecular_wt_calculated>  (217) 
464.3789999999999

>  <_havy_atom_count>  (217) 
33

>  <_hydrogen_acceptors>  (217) 
12

>  <_hydrogen_donors>  (217) 
8

>  <_rotatable_bonds>  (217) 
12

>  <_amide_bonds>  (217) 
0

>  <_ring_count>  (217) 
4

$$$$
Isorhamnetin 4'-O-glucoside
     RDKit          3D

 56 59  0  0  0  0  0  0  0  0999 V2000
   -1.1782    1.4418   -2.2606 C   0  0  0  0  0  0  0  0  0  0  0  0
   -1.4674    0.3741   -1.3631 O   0  0  0  0  0  0  0  0  0  0  0  0
   -0.5132   -0.3080   -0.5936 C   0  0  0  0  0  0  0  0  0  0  0  0
    0.8441    0.0767   -0.6123 C   0  0  0  0  0  0  0  0  0  0  0  0
    1.8107   -0.6475    0.1041 C   0  0  0  0  0  0  0  0  0  0  0  0
    1.4083   -1.7452    0.8727 C   0  0  0  0  0  0  0  0  0  0  0  0
    0.0685   -2.1286    0.9076 C   0  0  0  0  0  0  0  0  0  0  0  0
   -0.9044   -1.4164    0.1973 C   0  0  0  0  0  0  0  0  0  0  0  0
   -2.2299   -1.8721    0.3116 O   0  0  0  0  0  0  0  0  0  0  0  0
   -3.4180   -1.1063    0.1087 C   0  0  0  0  0  0  0  0  0  0  0  0
   -3.3738    0.0388    0.9492 O   0  0  0  0  0  0  0  0  0  0  0  0
   -4.5264    0.8641    0.8230 C   0  0  0  0  0  0  0  0  0  0  0  0
   -4.5165    1.6661   -0.4967 C   0  0  0  0  0  0  0  0  0  0  0  0
   -5.4348    2.7226   -0.4319 O   0  0  0  0  0  0  0  0  0  0  0  0
   -5.8387    0.0882    1.1258 C   0  0  0  0  0  0  0  0  0  0  0  0
   -6.9622    0.8981    0.8910 O   0  0  0  0  0  0  0  0  0  0  0  0
   -5.9398   -1.2231    0.3288 C   0  0  0  0  0  0  0  0  0  0  0  0
   -6.2269   -0.9487   -1.0201 O   0  0  0  0  0  0  0  0  0  0  0  0
   -4.6212   -2.0010    0.4665 C   0  0  0  0  0  0  0  0  0  0  0  0
   -4.6421   -3.1773   -0.3056 O   0  0  0  0  0  0  0  0  0  0  0  0
    3.2350   -0.2430    0.1033 C   0  0  0  0  0  0  0  0  0  0  0  0
    3.9039    0.1360   -1.0766 C   0  0  0  0  0  0  0  0  0  0  0  0
    3.2428    0.0950   -2.3069 O   0  0  0  0  0  0  0  0  0  0  0  0
    5.2501    0.5253   -0.9977 C   0  0  0  0  0  0  0  0  0  0  0  0
    5.8563    0.8774   -2.0461 O   0  0  0  0  0  0  0  0  0  0  0  0
    5.9082    0.5100    0.2492 C   0  0  0  0  0  0  0  0  0  0  0  0
    7.2639    0.8837    0.4138 C   0  0  0  0  0  0  0  0  0  0  0  0
    8.0305    1.3034   -0.6742 O   0  0  0  0  0  0  0  0  0  0  0  0
    7.8498    0.8326    1.6874 C   0  0  0  0  0  0  0  0  0  0  0  0
    7.1068    0.4149    2.7974 C   0  0  0  0  0  0  0  0  0  0  0  0
    7.6886    0.3632    4.0622 O   0  0  0  0  0  0  0  0  0  0  0  0
    5.7699    0.0462    2.6398 C   0  0  0  0  0  0  0  0  0  0  0  0
    5.1671    0.0917    1.3794 C   0  0  0  0  0  0  0  0  0  0  0  0
    3.8921   -0.2597    1.2594 O   0  0  0  0  0  0  0  0  0  0  0  0
   -0.7767    2.3126   -1.7008 H   0  0  0  0  0  0  0  0  0  0  0  0
   -2.1137    1.7494   -2.7710 H   0  0  0  0  0  0  0  0  0  0  0  0
   -0.4497    1.1089   -3.0299 H   0  0  0  0  0  0  0  0  0  0  0  0
    1.1512    0.9500   -1.1701 H   0  0  0  0  0  0  0  0  0  0  0  0
    2.1347   -2.3134    1.4412 H   0  0  0  0  0  0  0  0  0  0  0  0
   -0.2218   -2.9828    1.5065 H   0  0  0  0  0  0  0  0  0  0  0  0
   -3.4857   -0.8264   -0.9628 H   0  0  0  0  0  0  0  0  0  0  0  0
   -4.4384    1.6267    1.6283 H   0  0  0  0  0  0  0  0  0  0  0  0
   -3.4988    2.0890   -0.6406 H   0  0  0  0  0  0  0  0  0  0  0  0
   -4.7514    1.0214   -1.3684 H   0  0  0  0  0  0  0  0  0  0  0  0
   -5.3710    3.1982   -1.3007 H   0  0  0  0  0  0  0  0  0  0  0  0
   -5.8091   -0.1779    2.2097 H   0  0  0  0  0  0  0  0  0  0  0  0
   -7.7299    0.4653    1.3485 H   0  0  0  0  0  0  0  0  0  0  0  0
   -6.7619   -1.8334    0.7742 H   0  0  0  0  0  0  0  0  0  0  0  0
   -6.7255   -1.7293   -1.3774 H   0  0  0  0  0  0  0  0  0  0  0  0
   -4.5133   -2.3050    1.5316 H   0  0  0  0  0  0  0  0  0  0  0  0
   -4.5790   -2.9187   -1.2619 H   0  0  0  0  0  0  0  0  0  0  0  0
    3.6961    0.3525   -3.1754 H   0  0  0  0  0  0  0  0  0  0  0  0
    9.0016    1.5733   -0.5696 H   0  0  0  0  0  0  0  0  0  0  0  0
    8.8866    1.1181    1.8143 H   0  0  0  0  0  0  0  0  0  0  0  0
    8.6564    0.6240    4.2114 H   0  0  0  0  0  0  0  0  0  0  0  0
    5.1965   -0.2756    3.5006 H   0  0  0  0  0  0  0  0  0  0  0  0
  1  2  1  0
  2  3  1  0
  3  4  2  0
  4  5  1  0
  5  6  2  0
  6  7  1  0
  7  8  2  0
  8  9  1  0
  9 10  1  0
 10 11  1  0
 11 12  1  0
 12 13  1  0
 13 14  1  0
 12 15  1  0
 15 16  1  0
 15 17  1  0
 17 18  1  0
 17 19  1  0
 19 20  1  0
  5 21  1  0
 21 22  2  0
 22 23  1  0
 22 24  1  0
 24 25  2  0
 24 26  1  0
 26 27  2  0
 27 28  1  0
 27 29  1  0
 29 30  2  0
 30 31  1  0
 30 32  1  0
 32 33  2  0
 33 34  1  0
  8  3  1  0
 19 10  1  0
 34 21  1  0
 33 26  1  0
  1 35  1  0
  1 36  1  0
  1 37  1  0
  4 38  1  0
  6 39  1  0
  7 40  1  0
 10 41  1  0
 12 42  1  0
 13 43  1  0
 13 44  1  0
 14 45  1  0
 15 46  1  0
 16 47  1  0
 17 48  1  0
 18 49  1  0
 19 50  1  0
 20 51  1  0
 23 52  1  0
 28 53  1  0
 29 54  1  0
 31 55  1  0
 32 56  1  0
M  END
>  <LIG_ID>  (218) 
217

>  <_smiles>  (218) 
COC1=CC(=CC=C1OC1OC(CO)C(O)C(O)C1O)C1=C(O)C(=O)C2=C(O)C=C(O)C=C2O1

>  <_name>  (218) 
Isorhamnetin 4'-O-glucoside

>  <_molecular_weight>  (218) 
478.403

>  <_formula>  (218) 
C22H22O12

>  <_logP>  (218) 
-0.23590000000000066

>  <_molecular_wt_calculated>  (218) 
478.4059999999999

>  <_havy_atom_count>  (218) 
34

>  <_hydrogen_acceptors>  (218) 
12

>  <_hydrogen_donors>  (218) 
7

>  <_rotatable_bonds>  (218) 
13

>  <_amide_bonds>  (218) 
0

>  <_ring_count>  (218) 
4

$$$$
3,7-Dimethylquercetin
     RDKit          3D

 38 40  0  0  0  0  0  0  0  0999 V2000
   -5.0692   -2.6646   -0.2767 C   0  0  0  0  0  0  0  0  0  0  0  0
   -5.1267   -1.2601   -0.0494 O   0  0  0  0  0  0  0  0  0  0  0  0
   -4.0038   -0.4223    0.0277 C   0  0  0  0  0  0  0  0  0  0  0  0
   -4.2073    0.9392    0.2532 C   0  0  0  0  0  0  0  0  0  0  0  0
   -3.1344    1.8353    0.3257 C   0  0  0  0  0  0  0  0  0  0  0  0
   -3.4597    3.1895    0.4471 O   0  0  0  0  0  0  0  0  0  0  0  0
   -1.7980    1.3433    0.2423 C   0  0  0  0  0  0  0  0  0  0  0  0
   -0.6393    2.1324    0.4450 C   0  0  0  0  0  0  0  0  0  0  0  0
   -0.7411    3.3303    0.8131 O   0  0  0  0  0  0  0  0  0  0  0  0
    0.6430    1.5559    0.2839 C   0  0  0  0  0  0  0  0  0  0  0  0
    1.8468    2.2643    0.4757 O   0  0  0  0  0  0  0  0  0  0  0  0
    1.9798    3.6530    0.7595 C   0  0  0  0  0  0  0  0  0  0  0  0
    0.7217    0.1901   -0.0497 C   0  0  0  0  0  0  0  0  0  0  0  0
   -0.3842   -0.5351   -0.1555 O   0  0  0  0  0  0  0  0  0  0  0  0
   -1.6041   -0.0357   -0.0156 C   0  0  0  0  0  0  0  0  0  0  0  0
   -2.6950   -0.9020   -0.1234 C   0  0  0  0  0  0  0  0  0  0  0  0
    2.0186   -0.4916   -0.2645 C   0  0  0  0  0  0  0  0  0  0  0  0
    2.2248   -1.7721    0.2743 C   0  0  0  0  0  0  0  0  0  0  0  0
    3.4359   -2.4471    0.0638 C   0  0  0  0  0  0  0  0  0  0  0  0
    3.6431   -3.7119    0.6113 O   0  0  0  0  0  0  0  0  0  0  0  0
    4.4444   -1.8490   -0.7020 C   0  0  0  0  0  0  0  0  0  0  0  0
    5.6474   -2.5219   -0.9082 O   0  0  0  0  0  0  0  0  0  0  0  0
    4.2360   -0.5809   -1.2598 C   0  0  0  0  0  0  0  0  0  0  0  0
    3.0291    0.0913   -1.0494 C   0  0  0  0  0  0  0  0  0  0  0  0
   -4.4977   -3.1600    0.5365 H   0  0  0  0  0  0  0  0  0  0  0  0
   -4.5956   -2.8733   -1.2593 H   0  0  0  0  0  0  0  0  0  0  0  0
   -6.1005   -3.0729   -0.2858 H   0  0  0  0  0  0  0  0  0  0  0  0
   -5.2199    1.3143    0.3406 H   0  0  0  0  0  0  0  0  0  0  0  0
   -2.8446    3.9499    0.1984 H   0  0  0  0  0  0  0  0  0  0  0  0
    3.0583    3.9100    0.7925 H   0  0  0  0  0  0  0  0  0  0  0  0
    1.5380    3.8871    1.7507 H   0  0  0  0  0  0  0  0  0  0  0  0
    1.5020    4.2568   -0.0405 H   0  0  0  0  0  0  0  0  0  0  0  0
   -2.5094   -1.9509   -0.3134 H   0  0  0  0  0  0  0  0  0  0  0  0
    1.4496   -2.2419    0.8679 H   0  0  0  0  0  0  0  0  0  0  0  0
    2.9327   -4.1710    1.1694 H   0  0  0  0  0  0  0  0  0  0  0  0
    6.3946   -2.1151   -1.4588 H   0  0  0  0  0  0  0  0  0  0  0  0
    5.0061   -0.1186   -1.8641 H   0  0  0  0  0  0  0  0  0  0  0  0
    2.8786    1.0552   -1.5187 H   0  0  0  0  0  0  0  0  0  0  0  0
  1  2  1  0
  2  3  1  0
  3  4  2  0
  4  5  1  0
  5  6  1  0
  5  7  2  0
  7  8  1  0
  8  9  2  0
  8 10  1  0
 10 11  1  0
 11 12  1  0
 10 13  2  0
 13 14  1  0
 14 15  1  0
 15 16  2  0
 13 17  1  0
 17 18  2  0
 18 19  1  0
 19 20  1  0
 19 21  2  0
 21 22  1  0
 21 23  1  0
 23 24  2  0
 16  3  1  0
 24 17  1  0
 15  7  1  0
  1 25  1  0
  1 26  1  0
  1 27  1  0
  4 28  1  0
  6 29  1  0
 12 30  1  0
 12 31  1  0
 12 32  1  0
 16 33  1  0
 18 34  1  0
 20 35  1  0
 22 36  1  0
 23 37  1  0
 24 38  1  0
M  END
>  <LIG_ID>  (219) 
218

>  <_smiles>  (219) 
COC1=CC(O)=C2C(=O)C(OC)=C(OC2=C1)C1=CC(O)=C(O)C=C1

>  <_name>  (219) 
3,7-Dimethylquercetin

>  <_molecular_weight>  (219) 
330.289

>  <_formula>  (219) 
C17H14O7

>  <_logP>  (219) 
2.594000000000001

>  <_molecular_wt_calculated>  (219) 
330.2919999999998

>  <_havy_atom_count>  (219) 
24

>  <_hydrogen_acceptors>  (219) 
7

>  <_hydrogen_donors>  (219) 
3

>  <_rotatable_bonds>  (219) 
8

>  <_amide_bonds>  (219) 
0

>  <_ring_count>  (219) 
3

$$$$
Kaempferol 3-O-sophoroside
     RDKit          3D

 73 77  0  0  0  0  0  0  0  0999 V2000
   -3.2988   -3.1261    0.7834 O   0  0  0  0  0  0  0  0  0  0  0  0
   -4.1541   -2.2812    1.5060 C   0  0  0  0  0  0  0  0  0  0  0  0
   -3.5078   -0.9026    1.7009 C   0  0  1  0  0  0  0  0  0  0  0  0
   -3.2629   -0.3349    0.4206 O   0  0  0  0  0  0  0  0  0  0  0  0
   -2.8048    0.9982    0.5440 C   0  0  1  0  0  0  0  0  0  0  0  0
   -2.3279    1.4176   -0.7267 O   0  0  0  0  0  0  0  0  0  0  0  0
   -0.9815    1.8620   -0.6771 C   0  0  2  0  0  0  0  0  0  0  0  0
   -0.6929    2.7142   -1.9321 C   0  0  1  0  0  0  0  0  0  0  0  0
    0.5381    3.3762   -1.7751 O   0  0  0  0  0  0  0  0  0  0  0  0
   -0.6375    1.8440   -3.2150 C   0  0  2  0  0  0  0  0  0  0  0  0
   -1.8803    1.8310   -3.8746 O   0  0  0  0  0  0  0  0  0  0  0  0
   -0.1602    0.3993   -2.9048 C   0  0  1  0  0  0  0  0  0  0  0  0
    0.5861   -0.2202   -4.0942 C   0  0  0  0  0  0  0  0  0  0  0  0
   -0.2735   -0.3849   -5.1905 O   0  0  0  0  0  0  0  0  0  0  0  0
    0.7141    0.4236   -1.7959 O   0  0  0  0  0  0  0  0  0  0  0  0
   -0.0046    0.6464   -0.5922 C   0  0  1  0  0  0  0  0  0  0  0  0
    0.9272    0.8842    0.4599 O   0  0  0  0  0  0  0  0  0  0  0  0
    1.7757   -0.1211    0.9321 C   0  0  0  0  0  0  0  0  0  0  0  0
    3.0172   -0.3800    0.3185 C   0  0  0  0  0  0  0  0  0  0  0  0
    3.7708   -1.3853    0.7546 O   0  0  0  0  0  0  0  0  0  0  0  0
    3.4271   -2.1637    1.7753 C   0  0  0  0  0  0  0  0  0  0  0  0
    4.2863   -3.1952    2.1649 C   0  0  0  0  0  0  0  0  0  0  0  0
    3.9505   -4.0270    3.2383 C   0  0  0  0  0  0  0  0  0  0  0  0
    4.8029   -5.0563    3.6316 O   0  0  0  0  0  0  0  0  0  0  0  0
    2.7504   -3.8269    3.9246 C   0  0  0  0  0  0  0  0  0  0  0  0
    1.8737   -2.7985    3.5486 C   0  0  0  0  0  0  0  0  0  0  0  0
    0.6809   -2.6255    4.2519 O   0  0  0  0  0  0  0  0  0  0  0  0
    2.2084   -1.9533    2.4638 C   0  0  0  0  0  0  0  0  0  0  0  0
    1.3783   -0.9045    2.0203 C   0  0  0  0  0  0  0  0  0  0  0  0
    0.2748   -0.6628    2.5811 O   0  0  0  0  0  0  0  0  0  0  0  0
    3.5065    0.4197   -0.8256 C   0  0  0  0  0  0  0  0  0  0  0  0
    3.4045    1.8226   -0.8339 C   0  0  0  0  0  0  0  0  0  0  0  0
    3.8351    2.5547   -1.9441 C   0  0  0  0  0  0  0  0  0  0  0  0
    4.3829    1.8988   -3.0505 C   0  0  0  0  0  0  0  0  0  0  0  0
    4.7993    2.6406   -4.1535 O   0  0  0  0  0  0  0  0  0  0  0  0
    4.5099    0.5036   -3.0384 C   0  0  0  0  0  0  0  0  0  0  0  0
    4.0811   -0.2311   -1.9291 C   0  0  0  0  0  0  0  0  0  0  0  0
   -3.9785    1.9171    0.9647 C   0  0  2  0  0  0  0  0  0  0  0  0
   -3.4946    2.9772    1.7494 O   0  0  0  0  0  0  0  0  0  0  0  0
   -5.0506    1.1358    1.7595 C   0  0  1  0  0  0  0  0  0  0  0  0
   -5.9812    0.5847    0.8608 O   0  0  0  0  0  0  0  0  0  0  0  0
   -4.4084    0.0115    2.5969 C   0  0  2  0  0  0  0  0  0  0  0  0
   -3.6380    0.5900    3.6199 O   0  0  0  0  0  0  0  0  0  0  0  0
   -3.4220   -2.9061   -0.1768 H   0  0  0  0  0  0  0  0  0  0  0  0
   -4.3403   -2.7457    2.4981 H   0  0  0  0  0  0  0  0  0  0  0  0
   -5.1351   -2.1800    0.9868 H   0  0  0  0  0  0  0  0  0  0  0  0
   -2.5322   -1.0814    2.2098 H   0  0  0  0  0  0  0  0  0  0  0  0
   -2.0139    1.0434    1.3388 H   0  0  0  0  0  0  0  0  0  0  0  0
   -0.8353    2.5383    0.1996 H   0  0  0  0  0  0  0  0  0  0  0  0
   -1.4997    3.4765   -2.0494 H   0  0  0  0  0  0  0  0  0  0  0  0
    0.3830    4.1364   -1.1554 H   0  0  0  0  0  0  0  0  0  0  0  0
    0.0879    2.3259   -3.9082 H   0  0  0  0  0  0  0  0  0  0  0  0
   -2.5482    1.4307   -3.2604 H   0  0  0  0  0  0  0  0  0  0  0  0
   -1.0351   -0.2613   -2.6910 H   0  0  0  0  0  0  0  0  0  0  0  0
    1.4738    0.3973   -4.3674 H   0  0  0  0  0  0  0  0  0  0  0  0
    0.9638   -1.2216   -3.7963 H   0  0  0  0  0  0  0  0  0  0  0  0
   -0.2341    0.4561   -5.7160 H   0  0  0  0  0  0  0  0  0  0  0  0
   -0.5717   -0.2790   -0.3398 H   0  0  0  0  0  0  0  0  0  0  0  0
    5.2168   -3.3490    1.6323 H   0  0  0  0  0  0  0  0  0  0  0  0
    5.6807   -5.2285    3.1553 H   0  0  0  0  0  0  0  0  0  0  0  0
    2.4980   -4.4756    4.7541 H   0  0  0  0  0  0  0  0  0  0  0  0
    0.4290   -3.2244    5.0296 H   0  0  0  0  0  0  0  0  0  0  0  0
    2.9961    2.3523    0.0173 H   0  0  0  0  0  0  0  0  0  0  0  0
    3.7424    3.6333   -1.9446 H   0  0  0  0  0  0  0  0  0  0  0  0
    5.1996    2.1948   -4.9707 H   0  0  0  0  0  0  0  0  0  0  0  0
    4.9356   -0.0124   -3.8895 H   0  0  0  0  0  0  0  0  0  0  0  0
    4.1738   -1.3103   -1.9425 H   0  0  0  0  0  0  0  0  0  0  0  0
   -4.4710    2.3371    0.0549 H   0  0  0  0  0  0  0  0  0  0  0  0
   -3.0271    3.5996    1.1330 H   0  0  0  0  0  0  0  0  0  0  0  0
   -5.5818    1.8435    2.4397 H   0  0  0  0  0  0  0  0  0  0  0  0
   -6.7846    0.3396    1.3905 H   0  0  0  0  0  0  0  0  0  0  0  0
   -5.2339   -0.5744    3.0671 H   0  0  0  0  0  0  0  0  0  0  0  0
   -3.4582   -0.1271    4.2829 H   0  0  0  0  0  0  0  0  0  0  0  0
  1  2  1  0
  2  3  1  0
  3  4  1  0
  4  5  1  0
  5  6  1  0
  6  7  1  0
  7  8  1  0
  8  9  1  0
  8 10  1  0
 10 11  1  0
 10 12  1  0
 12 13  1  0
 13 14  1  0
 12 15  1  0
 15 16  1  0
 16 17  1  0
 17 18  1  0
 18 19  2  0
 19 20  1  0
 20 21  1  0
 21 22  2  0
 22 23  1  0
 23 24  1  0
 23 25  2  0
 25 26  1  0
 26 27  1  0
 26 28  2  0
 28 29  1  0
 29 30  2  0
 19 31  1  0
 31 32  2  0
 32 33  1  0
 33 34  2  0
 34 35  1  0
 34 36  1  0
 36 37  2  0
  5 38  1  0
 38 39  1  0
 38 40  1  0
 40 41  1  0
 40 42  1  0
 42 43  1  0
 42  3  1  0
 16  7  1  0
 29 18  1  0
 37 31  1  0
 28 21  1  0
  1 44  1  0
  2 45  1  0
  2 46  1  0
  3 47  1  1
  5 48  1  1
  7 49  1  1
  8 50  1  6
  9 51  1  0
 10 52  1  6
 11 53  1  0
 12 54  1  1
 13 55  1  0
 13 56  1  0
 14 57  1  0
 16 58  1  1
 22 59  1  0
 24 60  1  0
 25 61  1  0
 27 62  1  0
 32 63  1  0
 33 64  1  0
 35 65  1  0
 36 66  1  0
 37 67  1  0
 38 68  1  6
 39 69  1  0
 40 70  1  1
 41 71  1  0
 42 72  1  1
 43 73  1  0
M  END
>  <LIG_ID>  (220) 
219

>  <_smiles>  (220) 
OC[C@H]1O[C@@H](O[C@@H]2[C@@H](O)[C@H](O)[C@@H](CO)O[C@H]2OC2=C(OC3=CC(O)=CC(O)=C3C2=O)C2=CC=C(O)C=C2)[C@H](O)[C@@H](O)[C@@H]1O

>  <_name>  (220) 
Kaempferol 3-O-sophoroside

>  <_molecular_weight>  (220) 
610.518

>  <_formula>  (220) 
C27H30O16

>  <_logP>  (220) 
-2.4202999999999997

>  <_molecular_wt_calculated>  (220) 
610.5210000000015

>  <_havy_atom_count>  (220) 
43

>  <_hydrogen_acceptors>  (220) 
16

>  <_hydrogen_donors>  (220) 
10

>  <_rotatable_bonds>  (220) 
17

>  <_amide_bonds>  (220) 
0

>  <_ring_count>  (220) 
5

$$$$
Kaempferol 3,7-O-diglucoside
     RDKit          3D

 73 77  0  0  0  0  0  0  0  0999 V2000
    6.6737   -1.8042    2.7792 O   0  0  0  0  0  0  0  0  0  0  0  0
    5.6794   -0.9114    2.3544 C   0  0  0  0  0  0  0  0  0  0  0  0
    6.0630   -0.2473    1.0235 C   0  0  1  0  0  0  0  0  0  0  0  0
    4.9905    0.5823    0.6173 O   0  0  0  0  0  0  0  0  0  0  0  0
    5.1492    0.9737   -0.7393 C   0  0  1  0  0  0  0  0  0  0  0  0
    4.1254    1.9143   -1.0652 O   0  0  0  0  0  0  0  0  0  0  0  0
    2.7483    1.6400   -1.0644 C   0  0  0  0  0  0  0  0  0  0  0  0
    1.8680    2.6823   -1.3649 C   0  0  0  0  0  0  0  0  0  0  0  0
    0.4811    2.4763   -1.3804 C   0  0  0  0  0  0  0  0  0  0  0  0
   -0.3622    3.5460   -1.6844 O   0  0  0  0  0  0  0  0  0  0  0  0
   -0.0430    1.1938   -1.0879 C   0  0  0  0  0  0  0  0  0  0  0  0
   -1.4248    0.9053   -1.0940 C   0  0  0  0  0  0  0  0  0  0  0  0
   -2.2540    1.8066   -1.3876 O   0  0  0  0  0  0  0  0  0  0  0  0
   -1.8678   -0.4025   -0.7863 C   0  0  0  0  0  0  0  0  0  0  0  0
   -3.2211   -0.7962   -0.8082 O   0  0  0  0  0  0  0  0  0  0  0  0
   -4.3640    0.0500   -0.9146 C   0  0  2  0  0  0  0  0  0  0  0  0
   -4.3771    0.9508    0.1799 O   0  0  0  0  0  0  0  0  0  0  0  0
   -5.4349    1.8865    0.0464 C   0  0  2  0  0  0  0  0  0  0  0  0
   -5.2658    2.9470    1.1470 C   0  0  0  0  0  0  0  0  0  0  0  0
   -6.1309    4.0324    0.9456 O   0  0  0  0  0  0  0  0  0  0  0  0
   -6.8011    1.1617    0.1563 C   0  0  1  0  0  0  0  0  0  0  0  0
   -7.8561    2.0687   -0.0451 O   0  0  0  0  0  0  0  0  0  0  0  0
   -6.8858    0.0589   -0.9163 C   0  0  2  0  0  0  0  0  0  0  0  0
   -8.0511   -0.7115   -0.7552 O   0  0  0  0  0  0  0  0  0  0  0  0
   -5.6265   -0.8311   -0.8769 C   0  0  1  0  0  0  0  0  0  0  0  0
   -5.6306   -1.7558   -1.9364 O   0  0  0  0  0  0  0  0  0  0  0  0
   -0.8980   -1.3771   -0.4736 C   0  0  0  0  0  0  0  0  0  0  0  0
    0.3939   -1.0688   -0.4994 O   0  0  0  0  0  0  0  0  0  0  0  0
    0.8502    0.1432   -0.7839 C   0  0  0  0  0  0  0  0  0  0  0  0
    2.2300    0.3662   -0.7760 C   0  0  0  0  0  0  0  0  0  0  0  0
   -1.2707   -2.7665   -0.1223 C   0  0  0  0  0  0  0  0  0  0  0  0
   -2.3156   -3.0387    0.7802 C   0  0  0  0  0  0  0  0  0  0  0  0
   -2.6372   -4.3583    1.1114 C   0  0  0  0  0  0  0  0  0  0  0  0
   -1.9098   -5.4203    0.5586 C   0  0  0  0  0  0  0  0  0  0  0  0
   -2.2222   -6.7391    0.8805 O   0  0  0  0  0  0  0  0  0  0  0  0
   -0.8564   -5.1551   -0.3215 C   0  0  0  0  0  0  0  0  0  0  0  0
   -0.5326   -3.8364   -0.6549 C   0  0  0  0  0  0  0  0  0  0  0  0
    6.5352    1.6273   -1.0080 C   0  0  2  0  0  0  0  0  0  0  0  0
    7.2946    0.7834   -1.8371 O   0  0  0  0  0  0  0  0  0  0  0  0
    7.2912    1.8812    0.3145 C   0  0  1  0  0  0  0  0  0  0  0  0
    6.6284    2.8742    1.0574 O   0  0  0  0  0  0  0  0  0  0  0  0
    7.3718    0.5871    1.1532 C   0  0  2  0  0  0  0  0  0  0  0  0
    8.4677   -0.1755    0.7138 O   0  0  0  0  0  0  0  0  0  0  0  0
    6.5963   -2.6102    2.2046 H   0  0  0  0  0  0  0  0  0  0  0  0
    4.7099   -1.4484    2.2397 H   0  0  0  0  0  0  0  0  0  0  0  0
    5.5367   -0.1341    3.1354 H   0  0  0  0  0  0  0  0  0  0  0  0
    6.2095   -1.0690    0.2813 H   0  0  0  0  0  0  0  0  0  0  0  0
    5.0226    0.0879   -1.4044 H   0  0  0  0  0  0  0  0  0  0  0  0
    2.2676    3.6639   -1.5880 H   0  0  0  0  0  0  0  0  0  0  0  0
    0.0007    4.4685   -1.8949 H   0  0  0  0  0  0  0  0  0  0  0  0
   -4.3210    0.5886   -1.8895 H   0  0  0  0  0  0  0  0  0  0  0  0
   -5.3638    2.4111   -0.9360 H   0  0  0  0  0  0  0  0  0  0  0  0
   -4.2109    3.3057    1.1624 H   0  0  0  0  0  0  0  0  0  0  0  0
   -5.4756    2.4979    2.1413 H   0  0  0  0  0  0  0  0  0  0  0  0
   -5.7497    4.5662    0.2003 H   0  0  0  0  0  0  0  0  0  0  0  0
   -6.8743    0.6824    1.1633 H   0  0  0  0  0  0  0  0  0  0  0  0
   -8.2054    2.3174    0.8503 H   0  0  0  0  0  0  0  0  0  0  0  0
   -6.9398    0.5503   -1.9137 H   0  0  0  0  0  0  0  0  0  0  0  0
   -8.0024   -1.1515    0.1336 H   0  0  0  0  0  0  0  0  0  0  0  0
   -5.6188   -1.4031    0.0777 H   0  0  0  0  0  0  0  0  0  0  0  0
   -5.6128   -1.2421   -2.7860 H   0  0  0  0  0  0  0  0  0  0  0  0
    2.8861   -0.4614   -0.5426 H   0  0  0  0  0  0  0  0  0  0  0  0
   -2.8691   -2.2334    1.2463 H   0  0  0  0  0  0  0  0  0  0  0  0
   -3.4458   -4.5537    1.8042 H   0  0  0  0  0  0  0  0  0  0  0  0
   -2.9788   -6.9640    1.5159 H   0  0  0  0  0  0  0  0  0  0  0  0
   -0.2869   -5.9717   -0.7468 H   0  0  0  0  0  0  0  0  0  0  0  0
    0.2866   -3.6508   -1.3390 H   0  0  0  0  0  0  0  0  0  0  0  0
    6.3883    2.6030   -1.5297 H   0  0  0  0  0  0  0  0  0  0  0  0
    8.0400    1.3294   -2.2008 H   0  0  0  0  0  0  0  0  0  0  0  0
    8.3274    2.2300    0.0912 H   0  0  0  0  0  0  0  0  0  0  0  0
    6.8274    3.7429    0.6197 H   0  0  0  0  0  0  0  0  0  0  0  0
    7.5406    0.8916    2.2142 H   0  0  0  0  0  0  0  0  0  0  0  0
    8.7132   -0.7863    1.4562 H   0  0  0  0  0  0  0  0  0  0  0  0
  1  2  1  0
  2  3  1  0
  3  4  1  0
  4  5  1  0
  5  6  1  0
  6  7  1  0
  7  8  2  0
  8  9  1  0
  9 10  1  0
  9 11  2  0
 11 12  1  0
 12 13  2  0
 12 14  1  0
 14 15  1  0
 15 16  1  0
 16 17  1  0
 17 18  1  0
 18 19  1  0
 19 20  1  0
 18 21  1  0
 21 22  1  0
 21 23  1  0
 23 24  1  0
 23 25  1  0
 25 26  1  0
 14 27  2  0
 27 28  1  0
 28 29  1  0
 29 30  2  0
 27 31  1  0
 31 32  2  0
 32 33  1  0
 33 34  2  0
 34 35  1  0
 34 36  1  0
 36 37  2  0
  5 38  1  0
 38 39  1  0
 38 40  1  0
 40 41  1  0
 40 42  1  0
 42 43  1  0
 42  3  1  0
 30  7  1  0
 37 31  1  0
 29 11  1  0
 25 16  1  0
  1 44  1  0
  2 45  1  0
  2 46  1  0
  3 47  1  6
  5 48  1  6
  8 49  1  0
 10 50  1  0
 16 51  1  6
 18 52  1  6
 19 53  1  0
 19 54  1  0
 20 55  1  0
 21 56  1  1
 22 57  1  0
 23 58  1  6
 24 59  1  0
 25 60  1  1
 26 61  1  0
 30 62  1  0
 32 63  1  0
 33 64  1  0
 35 65  1  0
 36 66  1  0
 37 67  1  0
 38 68  1  6
 39 69  1  0
 40 70  1  6
 41 71  1  0
 42 72  1  1
 43 73  1  0
M  END
>  <LIG_ID>  (221) 
220

>  <_smiles>  (221) 
OC[C@H]1O[C@@H](OC2=CC(O)=C3C(=O)C(O[C@@H]4O[C@H](CO)[C@@H](O)[C@H](O)[C@H]4O)=C(OC3=C2)C2=CC=C(O)C=C2)[C@H](O)[C@@H](O)[C@@H]1O

>  <_name>  (221) 
Kaempferol 3,7-O-diglucoside

>  <_molecular_weight>  (221) 
610.518

>  <_formula>  (221) 
C27H30O16

>  <_logP>  (221) 
-2.7714000000000003

>  <_molecular_wt_calculated>  (221) 
610.5210000000015

>  <_havy_atom_count>  (221) 
43

>  <_hydrogen_acceptors>  (221) 
16

>  <_hydrogen_donors>  (221) 
10

>  <_rotatable_bonds>  (221) 
17

>  <_amide_bonds>  (221) 
0

>  <_ring_count>  (221) 
5

$$$$
Kaempferol 3-O-sophoroside 7-O-glucoside
     RDKit          3D

 94 99  0  0  0  0  0  0  0  0999 V2000
   -4.5584    2.3086    3.4275 O   0  0  0  0  0  0  0  0  0  0  0  0
   -4.0752    1.2261    2.6774 C   0  0  0  0  0  0  0  0  0  0  0  0
   -5.1156    0.7533    1.6463 C   0  0  0  0  0  0  0  0  0  0  0  0
   -4.4672   -0.1671    0.7780 O   0  0  0  0  0  0  0  0  0  0  0  0
   -5.3916   -0.7474   -0.1274 C   0  0  0  0  0  0  0  0  0  0  0  0
   -4.6972   -1.3988   -1.1766 O   0  0  0  0  0  0  0  0  0  0  0  0
   -3.9417   -0.4830   -1.9588 C   0  0  0  0  0  0  0  0  0  0  0  0
   -4.1765   -0.7979   -3.4532 C   0  0  0  0  0  0  0  0  0  0  0  0
   -3.9604    0.3646   -4.2155 O   0  0  0  0  0  0  0  0  0  0  0  0
   -3.2222   -1.9189   -3.9140 C   0  0  0  0  0  0  0  0  0  0  0  0
   -3.4393   -2.2213   -5.2700 O   0  0  0  0  0  0  0  0  0  0  0  0
   -1.7319   -1.5252   -3.6282 C   0  0  0  0  0  0  0  0  0  0  0  0
   -0.9448   -1.1582   -4.8961 C   0  0  0  0  0  0  0  0  0  0  0  0
   -0.7345   -2.2970   -5.6853 O   0  0  0  0  0  0  0  0  0  0  0  0
   -1.6333   -0.4246   -2.7361 O   0  0  0  0  0  0  0  0  0  0  0  0
   -2.4423   -0.6218   -1.5922 C   0  0  0  0  0  0  0  0  0  0  0  0
   -2.1123    0.3596   -0.6133 O   0  0  0  0  0  0  0  0  0  0  0  0
   -0.8492    0.4177   -0.0195 C   0  0  0  0  0  0  0  0  0  0  0  0
    0.2006    1.1476   -0.6099 C   0  0  0  0  0  0  0  0  0  0  0  0
    1.4041    1.1445   -0.0445 O   0  0  0  0  0  0  0  0  0  0  0  0
    1.6772    0.4996    1.0848 C   0  0  0  0  0  0  0  0  0  0  0  0
    2.9729    0.5594    1.6048 C   0  0  0  0  0  0  0  0  0  0  0  0
    3.2944   -0.1115    2.7977 C   0  0  0  0  0  0  0  0  0  0  0  0
    4.5826   -0.0863    3.3555 O   0  0  0  0  0  0  0  0  0  0  0  0
    5.7150    0.5632    2.7747 C   0  0  0  0  0  0  0  0  0  0  0  0
    6.0001   -0.0598    1.5278 O   0  0  0  0  0  0  0  0  0  0  0  0
    7.2538    0.3640    1.0264 C   0  0  0  0  0  0  0  0  0  0  0  0
    7.3600   -0.0408   -0.4468 C   0  0  0  0  0  0  0  0  0  0  0  0
    6.3439    0.5844   -1.1811 O   0  0  0  0  0  0  0  0  0  0  0  0
    8.4044   -0.2621    1.8658 C   0  0  0  0  0  0  0  0  0  0  0  0
    9.4956    0.6223    1.9066 O   0  0  0  0  0  0  0  0  0  0  0  0
    7.9394   -0.5591    3.3096 C   0  0  0  0  0  0  0  0  0  0  0  0
    7.3567   -1.8385    3.3573 O   0  0  0  0  0  0  0  0  0  0  0  0
    6.9185    0.5042    3.7622 C   0  0  0  0  0  0  0  0  0  0  0  0
    6.4792    0.2464    5.0724 O   0  0  0  0  0  0  0  0  0  0  0  0
    2.3009   -0.8344    3.4640 C   0  0  0  0  0  0  0  0  0  0  0  0
    0.9953   -0.9059    2.9575 C   0  0  0  0  0  0  0  0  0  0  0  0
    0.0321   -1.6393    3.6516 O   0  0  0  0  0  0  0  0  0  0  0  0
    0.6724   -0.2369    1.7544 C   0  0  0  0  0  0  0  0  0  0  0  0
   -0.6118   -0.2706    1.1748 C   0  0  0  0  0  0  0  0  0  0  0  0
   -1.5523   -0.9196    1.7085 O   0  0  0  0  0  0  0  0  0  0  0  0
    0.0176    1.9034   -1.8687 C   0  0  0  0  0  0  0  0  0  0  0  0
    1.0030    1.8321   -2.8666 C   0  0  0  0  0  0  0  0  0  0  0  0
    0.8306    2.5046   -4.0799 C   0  0  0  0  0  0  0  0  0  0  0  0
   -0.3223    3.2685   -4.3036 C   0  0  0  0  0  0  0  0  0  0  0  0
   -0.5081    3.9374   -5.5112 O   0  0  0  0  0  0  0  0  0  0  0  0
   -1.2956    3.3638   -3.3046 C   0  0  0  0  0  0  0  0  0  0  0  0
   -1.1260    2.6925   -2.0903 C   0  0  0  0  0  0  0  0  0  0  0  0
   -6.2846   -1.7709    0.6229 C   0  0  0  0  0  0  0  0  0  0  0  0
   -5.7603   -3.0695    0.4930 O   0  0  0  0  0  0  0  0  0  0  0  0
   -6.4292   -1.4007    2.1216 C   0  0  0  0  0  0  0  0  0  0  0  0
   -5.3700   -1.9727    2.8528 O   0  0  0  0  0  0  0  0  0  0  0  0
   -6.4117    0.1359    2.2814 C   0  0  0  0  0  0  0  0  0  0  0  0
   -6.6368    0.5358    3.6127 O   0  0  0  0  0  0  0  0  0  0  0  0
   -4.5192    3.1053    2.8364 H   0  0  0  0  0  0  0  0  0  0  0  0
   -3.1385    1.5244    2.1524 H   0  0  0  0  0  0  0  0  0  0  0  0
   -3.8111    0.3930    3.3624 H   0  0  0  0  0  0  0  0  0  0  0  0
   -5.4057    1.6519    1.0539 H   0  0  0  0  0  0  0  0  0  0  0  0
   -6.0639    0.0314   -0.5684 H   0  0  0  0  0  0  0  0  0  0  0  0
   -4.2525    0.5807   -1.8047 H   0  0  0  0  0  0  0  0  0  0  0  0
   -5.2333   -1.1327   -3.5827 H   0  0  0  0  0  0  0  0  0  0  0  0
   -4.4223    0.2319   -5.0841 H   0  0  0  0  0  0  0  0  0  0  0  0
   -3.4484   -2.8277   -3.3064 H   0  0  0  0  0  0  0  0  0  0  0  0
   -4.3069   -2.7014   -5.3233 H   0  0  0  0  0  0  0  0  0  0  0  0
   -1.2128   -2.3994   -3.1711 H   0  0  0  0  0  0  0  0  0  0  0  0
    0.0423   -0.7358   -4.6006 H   0  0  0  0  0  0  0  0  0  0  0  0
   -1.4953   -0.3823   -5.4745 H   0  0  0  0  0  0  0  0  0  0  0  0
   -0.2436   -1.9869   -6.4901 H   0  0  0  0  0  0  0  0  0  0  0  0
   -2.2499   -1.6288   -1.1494 H   0  0  0  0  0  0  0  0  0  0  0  0
    3.7183    1.1325    1.0705 H   0  0  0  0  0  0  0  0  0  0  0  0
    5.4533    1.6331    2.6076 H   0  0  0  0  0  0  0  0  0  0  0  0
    7.3258    1.4783    1.0641 H   0  0  0  0  0  0  0  0  0  0  0  0
    7.2613   -1.1461   -0.5399 H   0  0  0  0  0  0  0  0  0  0  0  0
    8.3506    0.2681   -0.8494 H   0  0  0  0  0  0  0  0  0  0  0  0
    6.4554    0.2809   -2.1194 H   0  0  0  0  0  0  0  0  0  0  0  0
    8.7354   -1.2288    1.4157 H   0  0  0  0  0  0  0  0  0  0  0  0
    9.9530    0.5566    1.0281 H   0  0  0  0  0  0  0  0  0  0  0  0
    8.8278   -0.5323    3.9849 H   0  0  0  0  0  0  0  0  0  0  0  0
    7.3751   -2.1304    4.3060 H   0  0  0  0  0  0  0  0  0  0  0  0
    7.4255    1.4985    3.7417 H   0  0  0  0  0  0  0  0  0  0  0  0
    7.2352    0.4662    5.6774 H   0  0  0  0  0  0  0  0  0  0  0  0
    2.5486   -1.3486    4.3844 H   0  0  0  0  0  0  0  0  0  0  0  0
    0.2501   -2.1232    4.5149 H   0  0  0  0  0  0  0  0  0  0  0  0
    1.8940    1.2346   -2.7163 H   0  0  0  0  0  0  0  0  0  0  0  0
    1.5908    2.4275   -4.8467 H   0  0  0  0  0  0  0  0  0  0  0  0
    0.1786    3.8880   -6.2548 H   0  0  0  0  0  0  0  0  0  0  0  0
   -2.1837    3.9608   -3.4684 H   0  0  0  0  0  0  0  0  0  0  0  0
   -1.8840    2.7961   -1.3245 H   0  0  0  0  0  0  0  0  0  0  0  0
   -7.2941   -1.7404    0.1483 H   0  0  0  0  0  0  0  0  0  0  0  0
   -6.4808   -3.6969    0.7637 H   0  0  0  0  0  0  0  0  0  0  0  0
   -7.4096   -1.7944    2.4837 H   0  0  0  0  0  0  0  0  0  0  0  0
   -5.7412   -2.2788    3.7211 H   0  0  0  0  0  0  0  0  0  0  0  0
   -7.2747    0.5210    1.6934 H   0  0  0  0  0  0  0  0  0  0  0  0
   -5.9980    0.0540    4.1976 H   0  0  0  0  0  0  0  0  0  0  0  0
  1  2  1  0
  2  3  1  0
  3  4  1  0
  4  5  1  0
  5  6  1  0
  6  7  1  0
  7  8  1  0
  8  9  1  0
  8 10  1  0
 10 11  1  0
 10 12  1  0
 12 13  1  0
 13 14  1  0
 12 15  1  0
 15 16  1  0
 16 17  1  0
 17 18  1  0
 18 19  2  0
 19 20  1  0
 20 21  1  0
 21 22  2  0
 22 23  1  0
 23 24  1  0
 24 25  1  0
 25 26  1  0
 26 27  1  0
 27 28  1  0
 28 29  1  0
 27 30  1  0
 30 31  1  0
 30 32  1  0
 32 33  1  0
 32 34  1  0
 34 35  1  0
 23 36  2  0
 36 37  1  0
 37 38  1  0
 37 39  2  0
 39 40  1  0
 40 41  2  0
 19 42  1  0
 42 43  2  0
 43 44  1  0
 44 45  2  0
 45 46  1  0
 45 47  1  0
 47 48  2  0
  5 49  1  0
 49 50  1  0
 49 51  1  0
 51 52  1  0
 51 53  1  0
 53 54  1  0
 53  3  1  0
 16  7  1  0
 40 18  1  0
 48 42  1  0
 39 21  1  0
 34 25  1  0
  1 55  1  0
  2 56  1  0
  2 57  1  0
  3 58  1  0
  5 59  1  0
  7 60  1  0
  8 61  1  0
  9 62  1  0
 10 63  1  0
 11 64  1  0
 12 65  1  0
 13 66  1  0
 13 67  1  0
 14 68  1  0
 16 69  1  0
 22 70  1  0
 25 71  1  0
 27 72  1  0
 28 73  1  0
 28 74  1  0
 29 75  1  0
 30 76  1  0
 31 77  1  0
 32 78  1  0
 33 79  1  0
 34 80  1  0
 35 81  1  0
 36 82  1  0
 38 83  1  0
 43 84  1  0
 44 85  1  0
 46 86  1  0
 47 87  1  0
 48 88  1  0
 49 89  1  0
 50 90  1  0
 51 91  1  0
 52 92  1  0
 53 93  1  0
 54 94  1  0
M  END
>  <LIG_ID>  (222) 
221

>  <_smiles>  (222) 
OCC1OC(OC2C(O)C(O)C(CO)OC2OC2=C(OC3=CC(OC4OC(CO)C(O)C(O)C4O)=CC(O)=C3C2=O)C2=CC=C(O)C=C2)C(O)C(O)C1O

>  <_name>  (222) 
Kaempferol 3-O-sophoroside 7-O-glucoside

>  <_molecular_weight>  (222) 
772.658

>  <_formula>  (222) 
C33H40O21

>  <_logP>  (222) 
-4.947199999999988

>  <_molecular_wt_calculated>  (222) 
772.6620000000016

>  <_havy_atom_count>  (222) 
54

>  <_hydrogen_acceptors>  (222) 
21

>  <_hydrogen_donors>  (222) 
13

>  <_rotatable_bonds>  (222) 
23

>  <_amide_bonds>  (222) 
0

>  <_ring_count>  (222) 
6

$$$$
Quercetin 3-O-(6"-malonyl-glucoside)
     RDKit          3D

 61 64  0  0  0  0  0  0  0  0999 V2000
    1.6710   -4.9849   -0.8853 O   0  0  0  0  0  0  0  0  0  0  0  0
    1.4572   -4.2119    0.2716 C   0  0  0  0  0  0  0  0  0  0  0  0
    2.6773   -3.3018    0.5657 C   0  0  0  0  0  0  0  0  0  0  0  0
    3.4076   -2.9820   -0.5970 O   0  0  0  0  0  0  0  0  0  0  0  0
    2.2599   -2.0442    1.3795 C   0  0  0  0  0  0  0  0  0  0  0  0
    3.4529   -1.1138    1.6382 C   0  0  0  0  0  0  0  0  0  0  0  0
    3.6872   -0.2860    0.5028 O   0  0  0  0  0  0  0  0  0  0  0  0
    4.7072    0.6673    0.4611 C   0  0  0  0  0  0  0  0  0  0  0  0
    5.5613    0.7381    1.3869 O   0  0  0  0  0  0  0  0  0  0  0  0
    4.7571    1.6389   -0.6728 C   0  0  0  0  0  0  0  0  0  0  0  0
    4.2966    2.9861   -0.2157 C   0  0  0  0  0  0  0  0  0  0  0  0
    5.1978    4.0444   -0.1574 O   0  0  0  0  0  0  0  0  0  0  0  0
    3.0973    3.1611    0.1303 O   0  0  0  0  0  0  0  0  0  0  0  0
    1.1859   -1.2755    0.8408 O   0  0  0  0  0  0  0  0  0  0  0  0
    0.3541   -1.9341   -0.1082 C   0  0  0  0  0  0  0  0  0  0  0  0
   -0.9109   -1.2759   -0.1407 O   0  0  0  0  0  0  0  0  0  0  0  0
   -1.1491    0.0864   -0.4165 C   0  0  0  0  0  0  0  0  0  0  0  0
   -2.4079    0.6227   -0.0768 C   0  0  0  0  0  0  0  0  0  0  0  0
   -2.7034    1.8824   -0.3788 O   0  0  0  0  0  0  0  0  0  0  0  0
   -1.8581    2.7056   -0.9837 C   0  0  0  0  0  0  0  0  0  0  0  0
   -0.5659    2.2672   -1.3512 C   0  0  0  0  0  0  0  0  0  0  0  0
    0.3048    3.1707   -2.0104 C   0  0  0  0  0  0  0  0  0  0  0  0
    1.5796    2.7746   -2.4171 O   0  0  0  0  0  0  0  0  0  0  0  0
   -0.1181    4.4830   -2.2678 C   0  0  0  0  0  0  0  0  0  0  0  0
   -1.3941    4.9068   -1.8921 C   0  0  0  0  0  0  0  0  0  0  0  0
   -1.7904    6.2151   -2.1605 O   0  0  0  0  0  0  0  0  0  0  0  0
   -2.2626    4.0163   -1.2533 C   0  0  0  0  0  0  0  0  0  0  0  0
   -0.2114    0.9342   -1.0525 C   0  0  0  0  0  0  0  0  0  0  0  0
    0.9293    0.5025   -1.3663 O   0  0  0  0  0  0  0  0  0  0  0  0
   -3.4394   -0.1850    0.6127 C   0  0  0  0  0  0  0  0  0  0  0  0
   -4.7769   -0.1038    0.1937 C   0  0  0  0  0  0  0  0  0  0  0  0
   -5.7732   -0.8447    0.8399 C   0  0  0  0  0  0  0  0  0  0  0  0
   -7.0887   -0.7502    0.3869 O   0  0  0  0  0  0  0  0  0  0  0  0
   -5.4376   -1.6673    1.9285 C   0  0  0  0  0  0  0  0  0  0  0  0
   -6.4246   -2.4097    2.5748 O   0  0  0  0  0  0  0  0  0  0  0  0
   -4.1075   -1.7339    2.3640 C   0  0  0  0  0  0  0  0  0  0  0  0
   -3.1160   -0.9924    1.7172 C   0  0  0  0  0  0  0  0  0  0  0  0
    0.1198   -3.4281    0.1898 C   0  0  0  0  0  0  0  0  0  0  0  0
   -0.6563   -3.6033    1.3517 O   0  0  0  0  0  0  0  0  0  0  0  0
    1.6031   -4.3811   -1.6707 H   0  0  0  0  0  0  0  0  0  0  0  0
    1.3696   -4.9304    1.1171 H   0  0  0  0  0  0  0  0  0  0  0  0
    3.3686   -3.8914    1.2086 H   0  0  0  0  0  0  0  0  0  0  0  0
    2.9207   -2.2829   -1.0983 H   0  0  0  0  0  0  0  0  0  0  0  0
    1.9401   -2.4075    2.3806 H   0  0  0  0  0  0  0  0  0  0  0  0
    3.2211   -0.4654    2.5117 H   0  0  0  0  0  0  0  0  0  0  0  0
    4.3650   -1.7040    1.8770 H   0  0  0  0  0  0  0  0  0  0  0  0
    5.7968    1.7043   -1.0590 H   0  0  0  0  0  0  0  0  0  0  0  0
    4.1029    1.2875   -1.4993 H   0  0  0  0  0  0  0  0  0  0  0  0
    4.9021    4.9616    0.1549 H   0  0  0  0  0  0  0  0  0  0  0  0
    0.7962   -1.8679   -1.1216 H   0  0  0  0  0  0  0  0  0  0  0  0
    2.2123    3.4117   -2.8870 H   0  0  0  0  0  0  0  0  0  0  0  0
    0.5467    5.1767   -2.7673 H   0  0  0  0  0  0  0  0  0  0  0  0
   -2.7096    6.5540   -1.9016 H   0  0  0  0  0  0  0  0  0  0  0  0
   -3.2544    4.3423   -0.9646 H   0  0  0  0  0  0  0  0  0  0  0  0
   -5.0467    0.5263   -0.6456 H   0  0  0  0  0  0  0  0  0  0  0  0
   -7.8454   -1.2655    0.8204 H   0  0  0  0  0  0  0  0  0  0  0  0
   -6.2074   -3.0089    3.3626 H   0  0  0  0  0  0  0  0  0  0  0  0
   -3.8419   -2.3547    3.2102 H   0  0  0  0  0  0  0  0  0  0  0  0
   -2.1019   -1.0346    2.0941 H   0  0  0  0  0  0  0  0  0  0  0  0
   -0.4812   -3.8410   -0.6506 H   0  0  0  0  0  0  0  0  0  0  0  0
   -0.1681   -3.2040    2.1151 H   0  0  0  0  0  0  0  0  0  0  0  0
  1  2  1  0
  2  3  1  0
  3  4  1  0
  3  5  1  0
  5  6  1  0
  6  7  1  0
  7  8  1  0
  8  9  2  0
  8 10  1  0
 10 11  1  0
 11 12  1  0
 11 13  2  0
  5 14  1  0
 14 15  1  0
 15 16  1  0
 16 17  1  0
 17 18  2  0
 18 19  1  0
 19 20  1  0
 20 21  2  0
 21 22  1  0
 22 23  1  0
 22 24  2  0
 24 25  1  0
 25 26  1  0
 25 27  2  0
 21 28  1  0
 28 29  2  0
 18 30  1  0
 30 31  2  0
 31 32  1  0
 32 33  1  0
 32 34  2  0
 34 35  1  0
 34 36  1  0
 36 37  2  0
 15 38  1  0
 38 39  1  0
 38  2  1  0
 28 17  1  0
 37 30  1  0
 27 20  1  0
  1 40  1  0
  2 41  1  0
  3 42  1  0
  4 43  1  0
  5 44  1  0
  6 45  1  0
  6 46  1  0
 10 47  1  0
 10 48  1  0
 12 49  1  0
 15 50  1  0
 23 51  1  0
 24 52  1  0
 26 53  1  0
 27 54  1  0
 31 55  1  0
 33 56  1  0
 35 57  1  0
 36 58  1  0
 37 59  1  0
 38 60  1  0
 39 61  1  0
M  END
>  <LIG_ID>  (223) 
222

>  <_smiles>  (223) 
OC1C(O)C(COC(=O)CC(O)=O)OC(OC2=C(OC3=C(C(O)=CC(O)=C3)C2=O)C2=CC(O)=C(O)C=C2)C1O

>  <_name>  (223) 
Quercetin 3-O-(6"-malonyl-glucoside)

>  <_molecular_weight>  (223) 
550.422

>  <_formula>  (223) 
C24H22O15

>  <_logP>  (223) 
-0.5133000000000001

>  <_molecular_wt_calculated>  (223) 
550.4250000000012

>  <_havy_atom_count>  (223) 
39

>  <_hydrogen_acceptors>  (223) 
15

>  <_hydrogen_donors>  (223) 
8

>  <_rotatable_bonds>  (223) 
14

>  <_amide_bonds>  (223) 
0

>  <_ring_count>  (223) 
4

$$$$
Kaempferol 3-O-(6"-malonyl-glucoside)
     RDKit          3D

 60 63  0  0  0  0  0  0  0  0999 V2000
    2.7185   -0.1954    0.3364 C   0  0  1  0  0  0  0  0  0  0  0  0
    3.7688    0.5670    1.1495 C   0  0  0  0  0  0  0  0  0  0  0  0
    5.0702    0.0696    0.8531 O   0  0  0  0  0  0  0  0  0  0  0  0
    6.2293    0.5968    1.4282 C   0  0  0  0  0  0  0  0  0  0  0  0
    6.1647    1.5556    2.2454 O   0  0  0  0  0  0  0  0  0  0  0  0
    7.5592    0.0458    1.0311 C   0  0  0  0  0  0  0  0  0  0  0  0
    7.9862    0.6423   -0.2701 C   0  0  0  0  0  0  0  0  0  0  0  0
    8.7153    1.8271   -0.2830 O   0  0  0  0  0  0  0  0  0  0  0  0
    7.6522    0.0957   -1.3554 O   0  0  0  0  0  0  0  0  0  0  0  0
    1.4355    0.2867    0.6857 O   0  0  0  0  0  0  0  0  0  0  0  0
    0.4231   -0.6126    0.2562 C   0  0  1  0  0  0  0  0  0  0  0  0
   -0.8329    0.0483    0.4311 O   0  0  0  0  0  0  0  0  0  0  0  0
   -2.1320   -0.4877    0.2921 C   0  0  0  0  0  0  0  0  0  0  0  0
   -3.2170    0.4099    0.2917 C   0  0  0  0  0  0  0  0  0  0  0  0
   -4.4620   -0.0462    0.2460 O   0  0  0  0  0  0  0  0  0  0  0  0
   -4.7663   -1.3319    0.1430 C   0  0  0  0  0  0  0  0  0  0  0  0
   -6.1139   -1.7001    0.1254 C   0  0  0  0  0  0  0  0  0  0  0  0
   -6.4789   -3.0405    0.0280 C   0  0  0  0  0  0  0  0  0  0  0  0
   -7.8281   -3.3880    0.0352 O   0  0  0  0  0  0  0  0  0  0  0  0
   -5.4909   -4.0215   -0.0868 C   0  0  0  0  0  0  0  0  0  0  0  0
   -4.1337   -3.6779   -0.1118 C   0  0  0  0  0  0  0  0  0  0  0  0
   -3.2291   -4.7189   -0.3407 O   0  0  0  0  0  0  0  0  0  0  0  0
   -3.7485   -2.3139    0.0579 C   0  0  0  0  0  0  0  0  0  0  0  0
   -2.4104   -1.8717    0.1959 C   0  0  0  0  0  0  0  0  0  0  0  0
   -1.4742   -2.7044    0.2879 O   0  0  0  0  0  0  0  0  0  0  0  0
   -3.0189    1.8750    0.3649 C   0  0  0  0  0  0  0  0  0  0  0  0
   -3.8340    2.6437    1.2119 C   0  0  0  0  0  0  0  0  0  0  0  0
   -3.6743    4.0312    1.2793 C   0  0  0  0  0  0  0  0  0  0  0  0
   -2.7083    4.6679    0.4889 C   0  0  0  0  0  0  0  0  0  0  0  0
   -2.5392    6.0493    0.5486 O   0  0  0  0  0  0  0  0  0  0  0  0
   -1.9087    3.9108   -0.3726 C   0  0  0  0  0  0  0  0  0  0  0  0
   -2.0665    2.5235   -0.4419 C   0  0  0  0  0  0  0  0  0  0  0  0
    0.5990   -1.0466   -1.2351 C   0  0  2  0  0  0  0  0  0  0  0  0
    1.0407   -2.3799   -1.2792 O   0  0  0  0  0  0  0  0  0  0  0  0
    1.6052   -0.1328   -1.9725 C   0  0  1  0  0  0  0  0  0  0  0  0
    1.0456    1.1478   -2.1269 O   0  0  0  0  0  0  0  0  0  0  0  0
    2.9385   -0.0119   -1.1896 C   0  0  2  0  0  0  0  0  0  0  0  0
    3.8961   -0.9234   -1.6712 O   0  0  0  0  0  0  0  0  0  0  0  0
    2.8165   -1.2725    0.6150 H   0  0  0  0  0  0  0  0  0  0  0  0
    3.7168    1.6533    0.9153 H   0  0  0  0  0  0  0  0  0  0  0  0
    3.5616    0.4295    2.2333 H   0  0  0  0  0  0  0  0  0  0  0  0
    8.3163    0.2739    1.8121 H   0  0  0  0  0  0  0  0  0  0  0  0
    7.4876   -1.0590    0.9350 H   0  0  0  0  0  0  0  0  0  0  0  0
    8.9982    2.2533   -1.1574 H   0  0  0  0  0  0  0  0  0  0  0  0
    0.4558   -1.4930    0.9344 H   0  0  0  0  0  0  0  0  0  0  0  0
   -6.8817   -0.9396    0.2003 H   0  0  0  0  0  0  0  0  0  0  0  0
   -8.1272   -4.3535   -0.0373 H   0  0  0  0  0  0  0  0  0  0  0  0
   -5.7793   -5.0601   -0.1928 H   0  0  0  0  0  0  0  0  0  0  0  0
   -2.2918   -4.5931   -0.6935 H   0  0  0  0  0  0  0  0  0  0  0  0
   -4.5855    2.1678    1.8301 H   0  0  0  0  0  0  0  0  0  0  0  0
   -4.3022    4.6100    1.9445 H   0  0  0  0  0  0  0  0  0  0  0  0
   -3.1040    6.6257    1.1615 H   0  0  0  0  0  0  0  0  0  0  0  0
   -1.1700    4.3988   -0.9956 H   0  0  0  0  0  0  0  0  0  0  0  0
   -1.4609    1.9618   -1.1408 H   0  0  0  0  0  0  0  0  0  0  0  0
   -0.3827   -0.9803   -1.7599 H   0  0  0  0  0  0  0  0  0  0  0  0
    0.8751   -2.7099   -2.2010 H   0  0  0  0  0  0  0  0  0  0  0  0
    1.8181   -0.5558   -2.9830 H   0  0  0  0  0  0  0  0  0  0  0  0
    0.3780    1.0857   -2.8594 H   0  0  0  0  0  0  0  0  0  0  0  0
    3.3433    1.0075   -1.3793 H   0  0  0  0  0  0  0  0  0  0  0  0
    3.5375   -1.8392   -1.5428 H   0  0  0  0  0  0  0  0  0  0  0  0
  1  2  1  0
  2  3  1  0
  3  4  1  0
  4  5  2  0
  4  6  1  0
  6  7  1  0
  7  8  1  0
  7  9  2  0
  1 10  1  0
 10 11  1  0
 11 12  1  0
 12 13  1  0
 13 14  2  0
 14 15  1  0
 15 16  1  0
 16 17  2  0
 17 18  1  0
 18 19  1  0
 18 20  2  0
 20 21  1  0
 21 22  1  0
 21 23  2  0
 23 24  1  0
 24 25  2  0
 14 26  1  0
 26 27  2  0
 27 28  1  0
 28 29  2  0
 29 30  1  0
 29 31  1  0
 31 32  2  0
 11 33  1  0
 33 34  1  0
 33 35  1  0
 35 36  1  0
 35 37  1  0
 37 38  1  0
 37  1  1  0
 24 13  1  0
 32 26  1  0
 23 16  1  0
  1 39  1  6
  2 40  1  0
  2 41  1  0
  6 42  1  0
  6 43  1  0
  8 44  1  0
 11 45  1  1
 17 46  1  0
 19 47  1  0
 20 48  1  0
 22 49  1  0
 27 50  1  0
 28 51  1  0
 30 52  1  0
 31 53  1  0
 32 54  1  0
 33 55  1  6
 34 56  1  0
 35 57  1  6
 36 58  1  0
 37 59  1  1
 38 60  1  0
M  END
>  <LIG_ID>  (224) 
223

>  <_smiles>  (224) 
[H][C@]1(COC(=O)CC(O)=O)O[C@@]([H])(OC2=C(OC3=CC(O)=CC(O)=C3C2=O)C2=CC=C(O)C=C2)[C@]([H])(O)[C@@]([H])(O)[C@]1([H])O

>  <_name>  (224) 
Kaempferol 3-O-(6"-malonyl-glucoside)

>  <_molecular_weight>  (224) 
534.423

>  <_formula>  (224) 
C24H22O14

>  <_logP>  (224) 
-0.21890000000000026

>  <_molecular_wt_calculated>  (224) 
534.4260000000012

>  <_havy_atom_count>  (224) 
38

>  <_hydrogen_acceptors>  (224) 
14

>  <_hydrogen_donors>  (224) 
7

>  <_rotatable_bonds>  (224) 
13

>  <_amide_bonds>  (224) 
0

>  <_ring_count>  (224) 
4

$$$$
Kaempferol 3-O-rhamnoside
     RDKit          3D

 50 53  0  0  0  0  0  0  0  0999 V2000
   -2.3044    3.4908    1.7001 C   0  0  0  0  0  0  0  0  0  0  0  0
   -2.2976    2.1887    0.8980 C   0  0  2  0  0  0  0  0  0  0  0  0
   -1.1131    2.1535    0.1199 O   0  0  0  0  0  0  0  0  0  0  0  0
   -0.9644    0.8898   -0.5017 C   0  0  2  0  0  0  0  0  0  0  0  0
    0.3075    0.8496   -1.1498 O   0  0  0  0  0  0  0  0  0  0  0  0
    1.1396   -0.2775   -1.1295 C   0  0  0  0  0  0  0  0  0  0  0  0
    1.6400   -0.8186    0.0757 C   0  0  0  0  0  0  0  0  0  0  0  0
    2.3604   -1.9361    0.0477 O   0  0  0  0  0  0  0  0  0  0  0  0
    2.6805   -2.5686   -1.0757 C   0  0  0  0  0  0  0  0  0  0  0  0
    3.4445   -3.7377   -1.0066 C   0  0  0  0  0  0  0  0  0  0  0  0
    3.8057   -4.4159   -2.1763 C   0  0  0  0  0  0  0  0  0  0  0  0
    4.5675   -5.5806   -2.1146 O   0  0  0  0  0  0  0  0  0  0  0  0
    3.4012   -3.9225   -3.4191 C   0  0  0  0  0  0  0  0  0  0  0  0
    2.6343   -2.7555   -3.5068 C   0  0  0  0  0  0  0  0  0  0  0  0
    2.2521   -2.3019   -4.7654 O   0  0  0  0  0  1  0  0  0  0  0  0
    2.2631   -2.0640   -2.3299 C   0  0  0  0  0  0  0  0  0  0  0  0
    1.4807   -0.8922   -2.3385 C   0  0  0  0  0  0  0  0  0  0  0  0
    1.0641   -0.3945   -3.4200 O   0  0  0  0  0  0  0  0  0  0  0  0
    1.4014   -0.1779    1.3872 C   0  0  0  0  0  0  0  0  0  0  0  0
    1.0353   -0.9660    2.4897 C   0  0  0  0  0  0  0  0  0  0  0  0
    0.7866   -0.3721    3.7309 C   0  0  0  0  0  0  0  0  0  0  0  0
    0.9160    1.0144    3.8866 C   0  0  0  0  0  0  0  0  0  0  0  0
    0.6631    1.6182    5.1162 O   0  0  0  0  0  0  0  0  0  0  0  0
    1.3061    1.8008    2.7986 C   0  0  0  0  0  0  0  0  0  0  0  0
    1.5573    1.2093    1.5574 C   0  0  0  0  0  0  0  0  0  0  0  0
   -2.0761    0.6668   -1.5464 C   0  0  2  0  0  0  0  0  0  0  0  0
   -1.9274    1.5352   -2.6451 O   0  0  0  0  0  0  0  0  0  0  0  0
   -3.4609    0.8158   -0.8769 C   0  0  2  0  0  0  0  0  0  0  0  0
   -4.4941    0.7657   -1.8301 O   0  0  0  0  0  0  0  0  0  0  0  0
   -3.5441    2.0955   -0.0125 C   0  0  1  0  0  0  0  0  0  0  0  0
   -4.7035    2.0551    0.7800 O   0  0  0  0  0  0  0  0  0  0  0  0
   -1.3972    3.5403    2.3394 H   0  0  0  0  0  0  0  0  0  0  0  0
   -3.1971    3.5394    2.3590 H   0  0  0  0  0  0  0  0  0  0  0  0
   -2.3061    4.3679    1.0181 H   0  0  0  0  0  0  0  0  0  0  0  0
   -2.3070    1.3530    1.6375 H   0  0  0  0  0  0  0  0  0  0  0  0
   -1.0209    0.0752    0.2583 H   0  0  0  0  0  0  0  0  0  0  0  0
    3.7597   -4.1171   -0.0424 H   0  0  0  0  0  0  0  0  0  0  0  0
    4.8773   -5.9648   -1.2295 H   0  0  0  0  0  0  0  0  0  0  0  0
    3.6830   -4.4493   -4.3224 H   0  0  0  0  0  0  0  0  0  0  0  0
    0.9215   -2.0380    2.3838 H   0  0  0  0  0  0  0  0  0  0  0  0
    0.4905   -0.9895    4.5694 H   0  0  0  0  0  0  0  0  0  0  0  0
    0.3789    1.0759    5.9236 H   0  0  0  0  0  0  0  0  0  0  0  0
    1.4160    2.8715    2.9153 H   0  0  0  0  0  0  0  0  0  0  0  0
    1.8730    1.8340    0.7314 H   0  0  0  0  0  0  0  0  0  0  0  0
   -1.9875   -0.3739   -1.9282 H   0  0  0  0  0  0  0  0  0  0  0  0
   -1.9312    2.4670   -2.3054 H   0  0  0  0  0  0  0  0  0  0  0  0
   -3.5950   -0.0567   -0.1986 H   0  0  0  0  0  0  0  0  0  0  0  0
   -4.4493    1.5956   -2.3726 H   0  0  0  0  0  0  0  0  0  0  0  0
   -3.5674    2.9953   -0.6716 H   0  0  0  0  0  0  0  0  0  0  0  0
   -5.4624    2.3071    0.1917 H   0  0  0  0  0  0  0  0  0  0  0  0
  1  2  1  0
  2  3  1  0
  3  4  1  0
  4  5  1  0
  5  6  1  0
  6  7  2  0
  7  8  1  0
  8  9  1  0
  9 10  2  0
 10 11  1  0
 11 12  1  0
 11 13  2  0
 13 14  1  0
 14 15  1  0
 14 16  2  0
 16 17  1  0
 17 18  2  0
  7 19  1  0
 19 20  2  0
 20 21  1  0
 21 22  2  0
 22 23  1  0
 22 24  1  0
 24 25  2  0
  4 26  1  0
 26 27  1  0
 26 28  1  0
 28 29  1  0
 28 30  1  0
 30 31  1  0
 30  2  1  0
 17  6  1  0
 25 19  1  0
 16  9  1  0
  1 32  1  0
  1 33  1  0
  1 34  1  0
  2 35  1  1
  4 36  1  1
 10 37  1  0
 12 38  1  0
 13 39  1  0
 20 40  1  0
 21 41  1  0
 23 42  1  0
 24 43  1  0
 25 44  1  0
 26 45  1  6
 27 46  1  0
 28 47  1  1
 29 48  1  0
 30 49  1  6
 31 50  1  0
M  CHG  1  15  -1
M  END
>  <LIG_ID>  (225) 
224

>  <_smiles>  (225) 
C[C@@H]1O[C@H](OC2=C(OC3=CC(O)=CC([O-])=C3C2=O)C2=CC=C(O)C=C2)[C@H](O)[C@H](O)[C@H]1O

>  <_name>  (225) 
Kaempferol 3-O-rhamnoside

>  <_molecular_weight>  (225) 
431.37

>  <_formula>  (225) 
C21H19O10

>  <_logP>  (225) 
0.15109999999999946

>  <_molecular_wt_calculated>  (225) 
431.3729999999999

>  <_havy_atom_count>  (225) 
31

>  <_hydrogen_acceptors>  (225) 
10

>  <_hydrogen_donors>  (225) 
5

>  <_rotatable_bonds>  (225) 
9

>  <_amide_bonds>  (225) 
0

>  <_ring_count>  (225) 
4

$$$$
Quercetin 3-O-(6"-malonyl-glucoside) 7-O-glucoside
     RDKit          3D

 82 86  0  0  0  0  0  0  0  0999 V2000
    7.6296    4.4646   -0.2764 O   0  0  0  0  0  0  0  0  0  0  0  0
    6.6974    3.4170   -0.3575 C   0  0  0  0  0  0  0  0  0  0  0  0
    7.3560    2.1522   -0.9576 C   0  0  0  0  0  0  0  0  0  0  0  0
    6.4154    1.3259   -1.6386 O   0  0  0  0  0  0  0  0  0  0  0  0
    5.5698    0.5715   -0.7789 C   0  0  0  0  0  0  0  0  0  0  0  0
    4.6675    1.4415   -0.0853 O   0  0  0  0  0  0  0  0  0  0  0  0
    3.3686    1.1355    0.3565 C   0  0  0  0  0  0  0  0  0  0  0  0
    2.7519   -0.1057    0.1355 C   0  0  0  0  0  0  0  0  0  0  0  0
    1.4493   -0.3415    0.5818 C   0  0  0  0  0  0  0  0  0  0  0  0
    0.7259    0.6664    1.2688 C   0  0  0  0  0  0  0  0  0  0  0  0
    1.3790    1.9036    1.5415 C   0  0  0  0  0  0  0  0  0  0  0  0
    0.8166    2.9325    2.3028 O   0  0  0  0  0  0  0  0  0  0  0  0
    2.6719    2.1235    1.0531 C   0  0  0  0  0  0  0  0  0  0  0  0
   -0.6198    0.3779    1.5984 C   0  0  0  0  0  0  0  0  0  0  0  0
   -1.3723    1.2424    2.1179 O   0  0  0  0  0  0  0  0  0  0  0  0
   -1.1575   -0.8796    1.3017 C   0  0  0  0  0  0  0  0  0  0  0  0
   -2.5043   -1.1330    1.5872 O   0  0  0  0  0  0  0  0  0  0  0  0
   -3.4870   -1.2910    0.5594 C   0  0  0  0  0  0  0  0  0  0  0  0
   -3.6732   -0.0647   -0.1351 O   0  0  0  0  0  0  0  0  0  0  0  0
   -4.4501    0.8397    0.6284 C   0  0  0  0  0  0  0  0  0  0  0  0
   -4.2784    2.2553    0.0611 C   0  0  0  0  0  0  0  0  0  0  0  0
   -4.5263    2.2616   -1.3421 O   0  0  0  0  0  0  0  0  0  0  0  0
   -4.4706    3.4248   -2.1139 C   0  0  0  0  0  0  0  0  0  0  0  0
   -4.1859    4.5350   -1.5872 O   0  0  0  0  0  0  0  0  0  0  0  0
   -4.7982    3.3528   -3.5689 C   0  0  0  0  0  0  0  0  0  0  0  0
   -6.2792    3.2810   -3.7499 C   0  0  0  0  0  0  0  0  0  0  0  0
   -6.9288    2.0537   -3.6611 O   0  0  0  0  0  0  0  0  0  0  0  0
   -6.9445    4.3340   -3.9412 O   0  0  0  0  0  0  0  0  0  0  0  0
   -5.9345    0.3732    0.6903 C   0  0  0  0  0  0  0  0  0  0  0  0
   -6.7016    0.9850   -0.3171 O   0  0  0  0  0  0  0  0  0  0  0  0
   -6.0420   -1.1631    0.5453 C   0  0  0  0  0  0  0  0  0  0  0  0
   -7.2182   -1.6148    1.1660 O   0  0  0  0  0  0  0  0  0  0  0  0
   -4.8094   -1.8859    1.1306 C   0  0  0  0  0  0  0  0  0  0  0  0
   -4.8296   -1.8849    2.5392 O   0  0  0  0  0  0  0  0  0  0  0  0
   -0.3329   -1.8517    0.7032 C   0  0  0  0  0  0  0  0  0  0  0  0
    0.9057   -1.5307    0.3490 O   0  0  0  0  0  0  0  0  0  0  0  0
   -0.7947   -3.2347    0.4463 C   0  0  0  0  0  0  0  0  0  0  0  0
   -0.4365   -3.8743   -0.7512 C   0  0  0  0  0  0  0  0  0  0  0  0
   -0.8592   -5.1820   -1.0158 C   0  0  0  0  0  0  0  0  0  0  0  0
   -0.4967   -5.7799   -2.2223 O   0  0  0  0  0  0  0  0  0  0  0  0
   -1.6378   -5.8698   -0.0698 C   0  0  0  0  0  0  0  0  0  0  0  0
   -2.0651   -7.1712   -0.3287 O   0  0  0  0  0  0  0  0  0  0  0  0
   -1.9792   -5.2431    1.1358 C   0  0  0  0  0  0  0  0  0  0  0  0
   -1.5544   -3.9385    1.3971 C   0  0  0  0  0  0  0  0  0  0  0  0
    6.3855   -0.3181    0.1871 C   0  0  0  0  0  0  0  0  0  0  0  0
    5.5474   -1.0757    1.0247 O   0  0  0  0  0  0  0  0  0  0  0  0
    7.3856    0.5242    0.9980 C   0  0  0  0  0  0  0  0  0  0  0  0
    8.2210   -0.3199    1.7483 O   0  0  0  0  0  0  0  0  0  0  0  0
    8.2409    1.3506    0.0294 C   0  0  0  0  0  0  0  0  0  0  0  0
    9.0864    2.2178    0.7414 O   0  0  0  0  0  0  0  0  0  0  0  0
    7.8817    4.5637    0.6785 H   0  0  0  0  0  0  0  0  0  0  0  0
    5.8776    3.7473   -1.0304 H   0  0  0  0  0  0  0  0  0  0  0  0
    6.2438    3.2097    0.6379 H   0  0  0  0  0  0  0  0  0  0  0  0
    8.0480    2.5215   -1.7468 H   0  0  0  0  0  0  0  0  0  0  0  0
    4.9909   -0.0952   -1.4495 H   0  0  0  0  0  0  0  0  0  0  0  0
    3.2647   -0.9033   -0.3814 H   0  0  0  0  0  0  0  0  0  0  0  0
    0.0417    2.8208    2.9386 H   0  0  0  0  0  0  0  0  0  0  0  0
    3.1567    3.0732    1.2450 H   0  0  0  0  0  0  0  0  0  0  0  0
   -3.1067   -2.0180   -0.1891 H   0  0  0  0  0  0  0  0  0  0  0  0
   -4.0592    0.8966    1.6710 H   0  0  0  0  0  0  0  0  0  0  0  0
   -4.9745    2.9547    0.5746 H   0  0  0  0  0  0  0  0  0  0  0  0
   -3.2364    2.5970    0.2469 H   0  0  0  0  0  0  0  0  0  0  0  0
   -4.3916    4.2415   -4.0993 H   0  0  0  0  0  0  0  0  0  0  0  0
   -4.3281    2.4468   -4.0068 H   0  0  0  0  0  0  0  0  0  0  0  0
   -7.9348    1.9898   -3.7615 H   0  0  0  0  0  0  0  0  0  0  0  0
   -6.3339    0.6790    1.6867 H   0  0  0  0  0  0  0  0  0  0  0  0
   -7.6543    0.8831   -0.0564 H   0  0  0  0  0  0  0  0  0  0  0  0
   -6.0851   -1.4026   -0.5446 H   0  0  0  0  0  0  0  0  0  0  0  0
   -7.3871   -2.5326    0.8270 H   0  0  0  0  0  0  0  0  0  0  0  0
   -4.8679   -2.9511    0.8136 H   0  0  0  0  0  0  0  0  0  0  0  0
   -4.8256   -0.9439    2.8493 H   0  0  0  0  0  0  0  0  0  0  0  0
    0.1593   -3.3518   -1.4902 H   0  0  0  0  0  0  0  0  0  0  0  0
   -0.7773   -6.7235   -2.4609 H   0  0  0  0  0  0  0  0  0  0  0  0
   -2.6266   -7.6878    0.3381 H   0  0  0  0  0  0  0  0  0  0  0  0
   -2.5697   -5.7693    1.8750 H   0  0  0  0  0  0  0  0  0  0  0  0
   -1.8095   -3.4857    2.3466 H   0  0  0  0  0  0  0  0  0  0  0  0
    6.9654   -1.0366   -0.4342 H   0  0  0  0  0  0  0  0  0  0  0  0
    5.1750   -0.4697    1.7168 H   0  0  0  0  0  0  0  0  0  0  0  0
    6.8387    1.2167    1.6800 H   0  0  0  0  0  0  0  0  0  0  0  0
    7.7120   -0.5837    2.5589 H   0  0  0  0  0  0  0  0  0  0  0  0
    8.8607    0.6496   -0.5806 H   0  0  0  0  0  0  0  0  0  0  0  0
    9.8482    1.6743    1.0728 H   0  0  0  0  0  0  0  0  0  0  0  0
  1  2  1  0
  2  3  1  0
  3  4  1  0
  4  5  1  0
  5  6  1  0
  6  7  1  0
  7  8  2  0
  8  9  1  0
  9 10  2  0
 10 11  1  0
 11 12  1  0
 11 13  2  0
 10 14  1  0
 14 15  2  0
 14 16  1  0
 16 17  1  0
 17 18  1  0
 18 19  1  0
 19 20  1  0
 20 21  1  0
 21 22  1  0
 22 23  1  0
 23 24  2  0
 23 25  1  0
 25 26  1  0
 26 27  1  0
 26 28  2  0
 20 29  1  0
 29 30  1  0
 29 31  1  0
 31 32  1  0
 31 33  1  0
 33 34  1  0
 16 35  2  0
 35 36  1  0
 35 37  1  0
 37 38  2  0
 38 39  1  0
 39 40  1  0
 39 41  2  0
 41 42  1  0
 41 43  1  0
 43 44  2  0
  5 45  1  0
 45 46  1  0
 45 47  1  0
 47 48  1  0
 47 49  1  0
 49 50  1  0
 49  3  1  0
 13  7  1  0
 33 18  1  0
 44 37  1  0
 36  9  1  0
  1 51  1  0
  2 52  1  0
  2 53  1  0
  3 54  1  0
  5 55  1  0
  8 56  1  0
 12 57  1  0
 13 58  1  0
 18 59  1  0
 20 60  1  0
 21 61  1  0
 21 62  1  0
 25 63  1  0
 25 64  1  0
 27 65  1  0
 29 66  1  0
 30 67  1  0
 31 68  1  0
 32 69  1  0
 33 70  1  0
 34 71  1  0
 38 72  1  0
 40 73  1  0
 42 74  1  0
 43 75  1  0
 44 76  1  0
 45 77  1  0
 46 78  1  0
 47 79  1  0
 48 80  1  0
 49 81  1  0
 50 82  1  0
M  END
>  <LIG_ID>  (226) 
225

>  <_smiles>  (226) 
OCC1OC(OC2=CC3=C(C(O)=C2)C(=O)C(OC2OC(COC(=O)CC(O)=O)C(O)C(O)C2O)=C(O3)C2=CC(O)=C(O)C=C2)C(O)C(O)C1O

>  <_name>  (226) 
Quercetin 3-O-(6"-malonyl-glucoside) 7-O-glucoside

>  <_molecular_weight>  (226) 
712.563

>  <_formula>  (226) 
C30H32O20

>  <_logP>  (226) 
-3.0401999999999982

>  <_molecular_wt_calculated>  (226) 
712.5660000000015

>  <_havy_atom_count>  (226) 
50

>  <_hydrogen_acceptors>  (226) 
20

>  <_hydrogen_donors>  (226) 
11

>  <_rotatable_bonds>  (226) 
20

>  <_amide_bonds>  (226) 
0

>  <_ring_count>  (226) 
5

$$$$
Patuletin 3-O-glucosyl-(1->6)-[apiosyl(1->2)]-glucoside
     RDKit          3D

 95100  0  0  0  0  0  0  0  0999 V2000
   -6.9064   -0.4242   -5.6281 C   0  0  0  0  0  0  0  0  0  0  0  0
   -5.6448   -0.7361   -5.0479 O   0  0  0  0  0  0  0  0  0  0  0  0
   -5.3131   -0.6777   -3.6805 C   0  0  0  0  0  0  0  0  0  0  0  0
   -3.9930   -1.0216   -3.3168 C   0  0  0  0  0  0  0  0  0  0  0  0
   -3.0783   -1.3998   -4.3042 O   0  0  0  0  0  0  0  0  0  0  0  0
   -3.5908   -0.9797   -1.9603 C   0  0  0  0  0  0  0  0  0  0  0  0
   -4.5247   -0.5969   -0.9753 C   0  0  0  0  0  0  0  0  0  0  0  0
   -4.1794   -0.5539    0.3059 O   0  0  0  0  0  0  0  0  0  0  0  0
   -2.9586   -0.8434    0.7437 C   0  0  0  0  0  0  0  0  0  0  0  0
   -1.9425   -1.1676   -0.1820 C   0  0  0  0  0  0  0  0  0  0  0  0
   -0.6093   -1.3820    0.1997 O   0  0  0  0  0  0  0  0  0  0  0  0
    0.1978   -0.4056    0.8636 C   0  0  0  0  0  0  0  0  0  0  0  0
    1.4337   -1.0059    1.1968 O   0  0  0  0  0  0  0  0  0  0  0  0
    2.1287   -0.2104    2.1469 C   0  0  0  0  0  0  0  0  0  0  0  0
    3.5115   -0.8309    2.3791 C   0  0  0  0  0  0  0  0  0  0  0  0
    4.2481   -0.8257    1.1717 O   0  0  0  0  0  0  0  0  0  0  0  0
    5.4113   -1.6267    1.2794 C   0  0  0  0  0  0  0  0  0  0  0  0
    6.4160   -1.0190    0.4808 O   0  0  0  0  0  0  0  0  0  0  0  0
    7.5315   -1.8750    0.3245 C   0  0  0  0  0  0  0  0  0  0  0  0
    8.7109   -1.0389   -0.1958 C   0  0  0  0  0  0  0  0  0  0  0  0
    9.8774   -1.8113   -0.2904 O   0  0  0  0  0  0  0  0  0  0  0  0
    7.1780   -3.0356   -0.6464 C   0  0  0  0  0  0  0  0  0  0  0  0
    7.9289   -4.1752   -0.3067 O   0  0  0  0  0  0  0  0  0  0  0  0
    5.6700   -3.3880   -0.5754 C   0  0  0  0  0  0  0  0  0  0  0  0
    4.9401   -2.7316   -1.5857 O   0  0  0  0  0  0  0  0  0  0  0  0
    5.0748   -3.0797    0.8164 C   0  0  0  0  0  0  0  0  0  0  0  0
    5.5822   -3.9909    1.7593 O   0  0  0  0  0  0  0  0  0  0  0  0
    2.2308    1.2878    1.7130 C   0  0  0  0  0  0  0  0  0  0  0  0
    1.3888    2.0610    2.5321 O   0  0  0  0  0  0  0  0  0  0  0  0
    1.8203    1.4661    0.2357 C   0  0  0  0  0  0  0  0  0  0  0  0
    2.7981    0.8804   -0.5862 O   0  0  0  0  0  0  0  0  0  0  0  0
    0.4325    0.8225   -0.0518 C   0  0  0  0  0  0  0  0  0  0  0  0
   -0.6034    1.7613    0.1936 O   0  0  0  0  0  0  0  0  0  0  0  0
   -0.8766    2.5525   -0.9504 C   0  0  0  0  0  0  0  0  0  0  0  0
   -1.6736    1.8138   -1.8579 O   0  0  0  0  0  0  0  0  0  0  0  0
   -2.8493    2.5519   -2.0952 C   0  0  0  0  0  0  0  0  0  0  0  0
   -3.0817    3.4732   -0.9049 C   0  0  0  0  0  0  0  0  0  0  0  0
   -3.6817    2.7518    0.1478 O   0  0  0  0  0  0  0  0  0  0  0  0
   -3.9445    4.7079   -1.2662 C   0  0  0  0  0  0  0  0  0  0  0  0
   -4.0215    5.5938   -0.1814 O   0  0  0  0  0  0  0  0  0  0  0  0
   -1.6506    3.8031   -0.5111 C   0  0  0  0  0  0  0  0  0  0  0  0
   -1.1577    4.9609   -1.1491 O   0  0  0  0  0  0  0  0  0  0  0  0
   -2.2776   -1.2732   -1.5361 C   0  0  0  0  0  0  0  0  0  0  0  0
   -1.3844   -1.6062   -2.3619 O   0  0  0  0  0  0  0  0  0  0  0  0
   -2.7335   -0.8371    2.2028 C   0  0  0  0  0  0  0  0  0  0  0  0
   -2.0571   -1.8939    2.8347 C   0  0  0  0  0  0  0  0  0  0  0  0
   -1.8467   -1.8695    4.2153 C   0  0  0  0  0  0  0  0  0  0  0  0
   -2.3206   -0.8016    4.9840 C   0  0  0  0  0  0  0  0  0  0  0  0
   -2.0920   -0.8026    6.3596 O   0  0  0  0  0  0  0  0  0  0  0  0
   -3.0182    0.2491    4.3638 C   0  0  0  0  0  0  0  0  0  0  0  0
   -3.4979    1.3142    5.1245 O   0  0  0  0  0  0  0  0  0  0  0  0
   -3.2287    0.2227    2.9776 C   0  0  0  0  0  0  0  0  0  0  0  0
   -5.8271   -0.2600   -1.3358 C   0  0  0  0  0  0  0  0  0  0  0  0
   -6.2322   -0.2925   -2.6740 C   0  0  0  0  0  0  0  0  0  0  0  0
   -7.5442    0.0584   -2.9865 O   0  0  0  0  0  0  0  0  0  0  0  0
   -6.8406   -0.5668   -6.7261 H   0  0  0  0  0  0  0  0  0  0  0  0
   -7.6893   -1.1071   -5.2365 H   0  0  0  0  0  0  0  0  0  0  0  0
   -7.1682    0.6368   -5.4317 H   0  0  0  0  0  0  0  0  0  0  0  0
   -3.3176   -1.4421   -5.2873 H   0  0  0  0  0  0  0  0  0  0  0  0
   -0.3206   -0.0756    1.7901 H   0  0  0  0  0  0  0  0  0  0  0  0
    1.5977   -0.2760    3.1257 H   0  0  0  0  0  0  0  0  0  0  0  0
    3.3632   -1.8687    2.7590 H   0  0  0  0  0  0  0  0  0  0  0  0
    4.0501   -0.2444    3.1574 H   0  0  0  0  0  0  0  0  0  0  0  0
    5.7929   -1.6442    2.3321 H   0  0  0  0  0  0  0  0  0  0  0  0
    7.8376   -2.2904    1.3151 H   0  0  0  0  0  0  0  0  0  0  0  0
    8.4690   -0.6282   -1.1994 H   0  0  0  0  0  0  0  0  0  0  0  0
    8.8841   -0.1727    0.4831 H   0  0  0  0  0  0  0  0  0  0  0  0
   10.2073   -1.9430    0.6366 H   0  0  0  0  0  0  0  0  0  0  0  0
    7.4025   -2.7395   -1.7000 H   0  0  0  0  0  0  0  0  0  0  0  0
    8.7851   -4.1234   -0.8057 H   0  0  0  0  0  0  0  0  0  0  0  0
    5.5520   -4.4777   -0.7670 H   0  0  0  0  0  0  0  0  0  0  0  0
    5.0786   -1.7548   -1.4879 H   0  0  0  0  0  0  0  0  0  0  0  0
    3.9670   -3.2033    0.7573 H   0  0  0  0  0  0  0  0  0  0  0  0
    5.1085   -4.8518    1.6157 H   0  0  0  0  0  0  0  0  0  0  0  0
    3.2784    1.6537    1.8344 H   0  0  0  0  0  0  0  0  0  0  0  0
    1.6669    3.0081    2.4239 H   0  0  0  0  0  0  0  0  0  0  0  0
    1.7894    2.5603    0.0251 H   0  0  0  0  0  0  0  0  0  0  0  0
    2.6795    1.2645   -1.4942 H   0  0  0  0  0  0  0  0  0  0  0  0
    0.4159    0.4605   -1.1088 H   0  0  0  0  0  0  0  0  0  0  0  0
    0.0622    2.8630   -1.4655 H   0  0  0  0  0  0  0  0  0  0  0  0
   -3.7060    1.8643   -2.2460 H   0  0  0  0  0  0  0  0  0  0  0  0
   -2.7190    3.1333   -3.0348 H   0  0  0  0  0  0  0  0  0  0  0  0
   -4.5886    2.4759   -0.1483 H   0  0  0  0  0  0  0  0  0  0  0  0
   -4.9657    4.3835   -1.5723 H   0  0  0  0  0  0  0  0  0  0  0  0
   -3.5132    5.2503   -2.1339 H   0  0  0  0  0  0  0  0  0  0  0  0
   -4.6879    5.2155    0.4496 H   0  0  0  0  0  0  0  0  0  0  0  0
   -1.5728    3.9611    0.5882 H   0  0  0  0  0  0  0  0  0  0  0  0
   -1.1418    4.7974   -2.1286 H   0  0  0  0  0  0  0  0  0  0  0  0
   -1.6920   -2.7359    2.2600 H   0  0  0  0  0  0  0  0  0  0  0  0
   -1.3153   -2.6844    4.6904 H   0  0  0  0  0  0  0  0  0  0  0  0
   -2.4150   -0.0528    6.9591 H   0  0  0  0  0  0  0  0  0  0  0  0
   -4.0024    2.0842    4.7008 H   0  0  0  0  0  0  0  0  0  0  0  0
   -3.7621    1.0375    2.5028 H   0  0  0  0  0  0  0  0  0  0  0  0
   -6.5309    0.0345   -0.5669 H   0  0  0  0  0  0  0  0  0  0  0  0
   -8.2086    0.3361   -2.2733 H   0  0  0  0  0  0  0  0  0  0  0  0
  1  2  1  0
  2  3  1  0
  3  4  2  0
  4  5  1  0
  4  6  1  0
  6  7  2  0
  7  8  1  0
  8  9  1  0
  9 10  2  0
 10 11  1  0
 11 12  1  0
 12 13  1  0
 13 14  1  0
 14 15  1  0
 15 16  1  0
 16 17  1  0
 17 18  1  0
 18 19  1  0
 19 20  1  0
 20 21  1  0
 19 22  1  0
 22 23  1  0
 22 24  1  0
 24 25  1  0
 24 26  1  0
 26 27  1  0
 14 28  1  0
 28 29  1  0
 28 30  1  0
 30 31  1  0
 30 32  1  0
 32 33  1  0
 33 34  1  0
 34 35  1  0
 35 36  1  0
 36 37  1  0
 37 38  1  0
 37 39  1  0
 39 40  1  0
 37 41  1  0
 41 42  1  0
 10 43  1  0
 43 44  2  0
  9 45  1  0
 45 46  2  0
 46 47  1  0
 47 48  2  0
 48 49  1  0
 48 50  1  0
 50 51  1  0
 50 52  2  0
  7 53  1  0
 53 54  2  0
 54 55  1  0
 54  3  1  0
 43  6  1  0
 52 45  1  0
 32 12  1  0
 41 34  1  0
 26 17  1  0
  1 56  1  0
  1 57  1  0
  1 58  1  0
  5 59  1  0
 12 60  1  0
 14 61  1  0
 15 62  1  0
 15 63  1  0
 17 64  1  0
 19 65  1  0
 20 66  1  0
 20 67  1  0
 21 68  1  0
 22 69  1  0
 23 70  1  0
 24 71  1  0
 25 72  1  0
 26 73  1  0
 27 74  1  0
 28 75  1  0
 29 76  1  0
 30 77  1  0
 31 78  1  0
 32 79  1  0
 34 80  1  0
 36 81  1  0
 36 82  1  0
 38 83  1  0
 39 84  1  0
 39 85  1  0
 40 86  1  0
 41 87  1  0
 42 88  1  0
 46 89  1  0
 47 90  1  0
 49 91  1  0
 51 92  1  0
 52 93  1  0
 53 94  1  0
 55 95  1  0
M  END
>  <LIG_ID>  (227) 
226

>  <_smiles>  (227) 
COC1=C(O)C2=C(OC(=C(OC3OC(COC4OC(CO)C(O)C(O)C4O)C(O)C(O)C3OC3OCC(O)(CO)C3O)C2=O)C2=CC=C(O)C(O)=C2)C=C1O

>  <_name>  (227) 
Patuletin 3-O-glucosyl-(1->6)-[apiosyl(1->2)]-glucoside

>  <_molecular_weight>  (227) 
788.657

>  <_formula>  (227) 
C33H40O22

>  <_logP>  (227) 
-4.241199999999997

>  <_molecular_wt_calculated>  (227) 
788.6610000000016

>  <_havy_atom_count>  (227) 
55

>  <_hydrogen_acceptors>  (227) 
22

>  <_hydrogen_donors>  (227) 
13

>  <_rotatable_bonds>  (227) 
25

>  <_amide_bonds>  (227) 
0

>  <_ring_count>  (227) 
6

$$$$
Spinacetin 3-O-glucosyl-(1->6)-[apiosyl(1->2)]-glucoside
     RDKit          3D

 98103  0  0  0  0  0  0  0  0999 V2000
   -2.4408   -2.8791   -5.0804 C   0  0  0  0  0  0  0  0  0  0  0  0
   -3.2788   -1.7391   -5.2412 O   0  0  0  0  0  0  0  0  0  0  0  0
   -3.6280   -0.8562   -4.2069 C   0  0  0  0  0  0  0  0  0  0  0  0
   -3.1849   -1.0470   -2.8830 C   0  0  0  0  0  0  0  0  0  0  0  0
   -3.5290   -0.1293   -1.8772 C   0  0  0  0  0  0  0  0  0  0  0  0
   -4.3588    0.9554   -2.1853 C   0  0  0  0  0  0  0  0  0  0  0  0
   -4.8064    1.1470   -3.4933 C   0  0  0  0  0  0  0  0  0  0  0  0
   -4.4435    0.2516   -4.5048 C   0  0  0  0  0  0  0  0  0  0  0  0
   -4.9048    0.4785   -5.8013 O   0  0  0  0  0  0  0  0  0  0  0  0
   -3.0802   -0.3371   -0.4909 C   0  0  0  0  0  0  0  0  0  0  0  0
   -1.7284   -0.5466   -0.1453 C   0  0  0  0  0  0  0  0  0  0  0  0
   -0.6591   -0.3926   -1.0459 O   0  0  0  0  0  0  0  0  0  0  0  0
   -0.4631    0.7064   -1.9477 C   0  0  0  0  0  0  0  0  0  0  0  0
    0.7235    0.4728   -2.6977 O   0  0  0  0  0  0  0  0  0  0  0  0
    1.8668    0.9559   -2.0204 C   0  0  0  0  0  0  0  0  0  0  0  0
    3.1239    0.3651   -2.6656 C   0  0  0  0  0  0  0  0  0  0  0  0
    3.0676   -1.0504   -2.5797 O   0  0  0  0  0  0  0  0  0  0  0  0
    4.1948   -1.6014   -1.9206 C   0  0  0  0  0  0  0  0  0  0  0  0
    4.2728   -2.9701   -2.2905 O   0  0  0  0  0  0  0  0  0  0  0  0
    5.4115   -3.6273   -1.7475 C   0  0  0  0  0  0  0  0  0  0  0  0
    6.7170   -3.1951   -2.4586 C   0  0  0  0  0  0  0  0  0  0  0  0
    7.7157   -4.1691   -2.3088 O   0  0  0  0  0  0  0  0  0  0  0  0
    5.4298   -3.5488   -0.1952 C   0  0  0  0  0  0  0  0  0  0  0  0
    6.5711   -4.1581    0.3586 O   0  0  0  0  0  0  0  0  0  0  0  0
    5.2148   -2.1153    0.3355 C   0  0  0  0  0  0  0  0  0  0  0  0
    6.3702   -1.3363    0.1528 O   0  0  0  0  0  0  0  0  0  0  0  0
    4.0228   -1.4660   -0.3898 C   0  0  0  0  0  0  0  0  0  0  0  0
    2.8209   -2.0813    0.0007 O   0  0  0  0  0  0  0  0  0  0  0  0
    1.8777    2.5048   -2.0762 C   0  0  0  0  0  0  0  0  0  0  0  0
    2.7146    3.0341   -1.0755 O   0  0  0  0  0  0  0  0  0  0  0  0
    0.4323    3.0708   -1.9881 C   0  0  0  0  0  0  0  0  0  0  0  0
    0.4192    4.3373   -1.3825 O   0  0  0  0  0  0  0  0  0  0  0  0
   -0.5018    2.1018   -1.2334 C   0  0  0  0  0  0  0  0  0  0  0  0
   -0.0647    1.9832    0.1152 O   0  0  0  0  0  0  0  0  0  0  0  0
   -1.0026    2.5252    1.0303 C   0  0  0  0  0  0  0  0  0  0  0  0
   -1.1554    3.9121    0.8418 O   0  0  0  0  0  0  0  0  0  0  0  0
   -1.6369    4.4214    2.0623 C   0  0  0  0  0  0  0  0  0  0  0  0
   -1.1569    3.5009    3.2039 C   0  0  0  0  0  0  0  0  0  0  0  0
   -0.2220    4.1603    4.0317 O   0  0  0  0  0  0  0  0  0  0  0  0
   -2.3338    3.0437    4.0939 C   0  0  0  0  0  0  0  0  0  0  0  0
   -3.2980    2.3535    3.3443 O   0  0  0  0  0  0  0  0  0  0  0  0
   -0.5256    2.3156    2.4616 C   0  0  0  0  0  0  0  0  0  0  0  0
    0.8799    2.3551    2.5121 O   0  0  0  0  0  0  0  0  0  0  0  0
   -1.4275   -0.9215    1.1698 C   0  0  0  0  0  0  0  0  0  0  0  0
   -0.2427   -1.2540    1.4355 O   0  0  0  0  0  0  0  0  0  0  0  0
   -2.4401   -0.9250    2.1609 C   0  0  0  0  0  0  0  0  0  0  0  0
   -3.7587   -0.6570    1.7235 C   0  0  0  0  0  0  0  0  0  0  0  0
   -4.0141   -0.3844    0.4503 O   0  0  0  0  0  0  0  0  0  0  0  0
   -4.8233   -0.6973    2.6186 C   0  0  0  0  0  0  0  0  0  0  0  0
   -4.6123   -1.0186    3.9578 C   0  0  0  0  0  0  0  0  0  0  0  0
   -5.6934   -1.0853    4.8363 O   0  0  0  0  0  0  0  0  0  0  0  0
   -3.3207   -1.2687    4.4354 C   0  0  0  0  0  0  0  0  0  0  0  0
   -3.2092   -1.5771    5.8056 O   0  0  0  0  0  0  0  0  0  0  0  0
   -2.0197   -1.9146    6.5106 C   0  0  0  0  0  0  0  0  0  0  0  0
   -2.2132   -1.1820    3.5489 C   0  0  0  0  0  0  0  0  0  0  0  0
   -0.9263   -1.3102    4.0779 O   0  0  0  0  0  0  0  0  0  0  0  0
   -2.3248   -3.3847   -6.0608 H   0  0  0  0  0  0  0  0  0  0  0  0
   -1.4375   -2.5677   -4.7200 H   0  0  0  0  0  0  0  0  0  0  0  0
   -2.9004   -3.5931   -4.3648 H   0  0  0  0  0  0  0  0  0  0  0  0
   -2.5661   -1.8969   -2.6275 H   0  0  0  0  0  0  0  0  0  0  0  0
   -4.6475    1.6607   -1.4153 H   0  0  0  0  0  0  0  0  0  0  0  0
   -5.4379    1.9957   -3.7234 H   0  0  0  0  0  0  0  0  0  0  0  0
   -4.6736   -0.1367   -6.5720 H   0  0  0  0  0  0  0  0  0  0  0  0
   -1.2717    0.7164   -2.6987 H   0  0  0  0  0  0  0  0  0  0  0  0
    1.8597    0.6106   -0.9596 H   0  0  0  0  0  0  0  0  0  0  0  0
    3.1519    0.6452   -3.7406 H   0  0  0  0  0  0  0  0  0  0  0  0
    4.0208    0.8229   -2.1848 H   0  0  0  0  0  0  0  0  0  0  0  0
    5.1231   -1.0806   -2.2540 H   0  0  0  0  0  0  0  0  0  0  0  0
    5.2774   -4.7041   -1.9922 H   0  0  0  0  0  0  0  0  0  0  0  0
    7.0991   -2.2388   -2.0517 H   0  0  0  0  0  0  0  0  0  0  0  0
    6.5140   -3.0299   -3.5416 H   0  0  0  0  0  0  0  0  0  0  0  0
    7.5007   -4.9002   -2.9452 H   0  0  0  0  0  0  0  0  0  0  0  0
    4.5573   -4.1447    0.1545 H   0  0  0  0  0  0  0  0  0  0  0  0
    7.3532   -3.5753    0.1828 H   0  0  0  0  0  0  0  0  0  0  0  0
    4.9895   -2.1817    1.4262 H   0  0  0  0  0  0  0  0  0  0  0  0
    6.2826   -0.5462    0.7478 H   0  0  0  0  0  0  0  0  0  0  0  0
    3.9897   -0.3851   -0.1200 H   0  0  0  0  0  0  0  0  0  0  0  0
    2.5985   -1.7307    0.9026 H   0  0  0  0  0  0  0  0  0  0  0  0
    2.2905    2.8295   -3.0571 H   0  0  0  0  0  0  0  0  0  0  0  0
    2.3369    2.7784   -0.1947 H   0  0  0  0  0  0  0  0  0  0  0  0
    0.0287    3.1661   -3.0249 H   0  0  0  0  0  0  0  0  0  0  0  0
    0.8323    4.9669   -2.0297 H   0  0  0  0  0  0  0  0  0  0  0  0
   -1.5458    2.4927   -1.3225 H   0  0  0  0  0  0  0  0  0  0  0  0
   -1.9940    2.0283    0.9085 H   0  0  0  0  0  0  0  0  0  0  0  0
   -2.7464    4.4837    2.0084 H   0  0  0  0  0  0  0  0  0  0  0  0
   -1.2638    5.4596    2.1936 H   0  0  0  0  0  0  0  0  0  0  0  0
    0.4637    4.5921    3.4568 H   0  0  0  0  0  0  0  0  0  0  0  0
   -1.9462    2.3803    4.9004 H   0  0  0  0  0  0  0  0  0  0  0  0
   -2.8010    3.9342    4.5715 H   0  0  0  0  0  0  0  0  0  0  0  0
   -4.0015    2.0776    3.9873 H   0  0  0  0  0  0  0  0  0  0  0  0
   -0.8861    1.3338    2.8399 H   0  0  0  0  0  0  0  0  0  0  0  0
    1.1442    1.9405    3.3747 H   0  0  0  0  0  0  0  0  0  0  0  0
   -5.8272   -0.4965    2.2647 H   0  0  0  0  0  0  0  0  0  0  0  0
   -6.6419   -0.9070    4.5271 H   0  0  0  0  0  0  0  0  0  0  0  0
   -1.3263   -1.0479    6.5321 H   0  0  0  0  0  0  0  0  0  0  0  0
   -2.2843   -2.1682    7.5574 H   0  0  0  0  0  0  0  0  0  0  0  0
   -1.5371   -2.8024    6.0502 H   0  0  0  0  0  0  0  0  0  0  0  0
   -0.0947   -0.9076    3.6721 H   0  0  0  0  0  0  0  0  0  0  0  0
  1  2  1  0
  2  3  1  0
  3  4  2  0
  4  5  1  0
  5  6  2  0
  6  7  1  0
  7  8  2  0
  8  9  1  0
  5 10  1  0
 10 11  2  0
 11 12  1  0
 12 13  1  0
 13 14  1  0
 14 15  1  0
 15 16  1  0
 16 17  1  0
 17 18  1  0
 18 19  1  0
 19 20  1  0
 20 21  1  0
 21 22  1  0
 20 23  1  0
 23 24  1  0
 23 25  1  0
 25 26  1  0
 25 27  1  0
 27 28  1  0
 15 29  1  0
 29 30  1  0
 29 31  1  0
 31 32  1  0
 31 33  1  0
 33 34  1  0
 34 35  1  0
 35 36  1  0
 36 37  1  0
 37 38  1  0
 38 39  1  0
 38 40  1  0
 40 41  1  0
 38 42  1  0
 42 43  1  0
 11 44  1  0
 44 45  2  0
 44 46  1  0
 46 47  2  0
 47 48  1  0
 47 49  1  0
 49 50  2  0
 50 51  1  0
 50 52  1  0
 52 53  1  0
 53 54  1  0
 52 55  2  0
 55 56  1  0
  8  3  1  0
 48 10  1  0
 33 13  1  0
 42 35  1  0
 55 46  1  0
 27 18  1  0
  1 57  1  0
  1 58  1  0
  1 59  1  0
  4 60  1  0
  6 61  1  0
  7 62  1  0
  9 63  1  0
 13 64  1  0
 15 65  1  0
 16 66  1  0
 16 67  1  0
 18 68  1  0
 20 69  1  0
 21 70  1  0
 21 71  1  0
 22 72  1  0
 23 73  1  0
 24 74  1  0
 25 75  1  0
 26 76  1  0
 27 77  1  0
 28 78  1  0
 29 79  1  0
 30 80  1  0
 31 81  1  0
 32 82  1  0
 33 83  1  0
 35 84  1  0
 37 85  1  0
 37 86  1  0
 39 87  1  0
 40 88  1  0
 40 89  1  0
 41 90  1  0
 42 91  1  0
 43 92  1  0
 49 93  1  0
 51 94  1  0
 54 95  1  0
 54 96  1  0
 54 97  1  0
 56 98  1  0
M  END
>  <LIG_ID>  (228) 
227

>  <_smiles>  (228) 
COC1=CC(=CC=C1O)C1=C(OC2OC(COC3OC(CO)C(O)C(O)C3O)C(O)C(O)C2OC2OCC(O)(CO)C2O)C(=O)C2=C(O1)C=C(O)C(OC)=C2O

>  <_name>  (228) 
Spinacetin 3-O-glucosyl-(1->6)-[apiosyl(1->2)]-glucoside

>  <_molecular_weight>  (228) 
802.684

>  <_formula>  (228) 
C34H42O22

>  <_logP>  (228) 
-3.938199999999997

>  <_molecular_wt_calculated>  (228) 
802.6880000000018

>  <_havy_atom_count>  (228) 
56

>  <_hydrogen_acceptors>  (228) 
22

>  <_hydrogen_donors>  (228) 
12

>  <_rotatable_bonds>  (228) 
26

>  <_amide_bonds>  (228) 
0

>  <_ring_count>  (228) 
6

$$$$
Patuletin 3-O-(2''-feruloylglucosyl)(1->6)-[apiosyl(1->2)]-glucoside
     RDKit          3D

116122  0  0  0  0  0  0  0  0999 V2000
   -0.7782   -2.4452    2.9183 C   0  0  2  0  0  0  0  0  0  0  0  0
   -0.5844   -1.5901    1.8081 O   0  0  0  0  0  0  0  0  0  0  0  0
   -1.6959   -1.6256    0.9229 C   0  0  2  0  0  0  0  0  0  0  0  0
   -1.4049   -2.6065   -0.2289 C   0  0  1  0  0  0  0  0  0  0  0  0
   -2.5562   -2.7280   -1.0257 O   0  0  0  0  0  0  0  0  0  0  0  0
   -0.2136   -2.1082   -1.0868 C   0  0  2  0  0  0  0  0  0  0  0  0
    0.9927   -2.5969   -0.5569 O   0  0  0  0  0  0  0  0  0  0  0  0
   -0.1575   -0.5574   -1.1169 C   0  0  1  0  0  0  0  0  0  0  0  0
    0.4221   -0.0368   -2.4362 C   0  0  0  0  0  0  0  0  0  0  0  0
    1.7122   -0.5819   -2.6327 O   0  0  0  0  0  0  0  0  0  0  0  0
    2.4821    0.2257   -3.5017 C   0  0  2  0  0  0  0  0  0  0  0  0
    1.8862    0.2285   -4.7934 O   0  0  0  0  0  0  0  0  0  0  0  0
    2.7389    0.5953   -5.8785 C   0  0  2  0  0  0  0  0  0  0  0  0
    2.9696   -0.6292   -6.7832 C   0  0  0  0  0  0  0  0  0  0  0  0
    1.7494   -1.2400   -7.1074 O   0  0  0  0  0  0  0  0  0  0  0  0
    4.0871    1.2901   -5.5047 C   0  0  1  0  0  0  0  0  0  0  0  0
    3.8943    2.6647   -5.2675 O   0  0  0  0  0  0  0  0  0  0  0  0
    4.8278    0.6235   -4.3158 C   0  0  2  0  0  0  0  0  0  0  0  0
    5.9418   -0.0875   -4.7944 O   0  0  0  0  0  0  0  0  0  0  0  0
    3.9160   -0.3254   -3.5209 C   0  0  1  0  0  0  0  0  0  0  0  0
    4.4091   -0.4433   -2.1830 O   0  0  0  0  0  0  0  0  0  0  0  0
    4.1829   -1.5643   -1.3753 C   0  0  0  0  0  0  0  0  0  0  0  0
    3.8020   -2.6543   -1.8855 O   0  0  0  0  0  0  0  0  0  0  0  0
    4.3703   -1.4431    0.0783 C   0  0  0  0  0  0  0  0  0  0  0  0
    4.2056   -2.4806    0.9101 C   0  0  0  0  0  0  0  0  0  0  0  0
    4.3615   -2.3677    2.3773 C   0  0  0  0  0  0  0  0  0  0  0  0
    4.0481   -1.1829    3.0694 C   0  0  0  0  0  0  0  0  0  0  0  0
    4.1921   -1.1096    4.4694 C   0  0  0  0  0  0  0  0  0  0  0  0
    3.8723    0.0525    5.1894 O   0  0  0  0  0  0  0  0  0  0  0  0
    3.3108    1.2288    4.6163 C   0  0  0  0  0  0  0  0  0  0  0  0
    4.6590   -2.2349    5.1718 C   0  0  0  0  0  0  0  0  0  0  0  0
    4.8273   -2.2015    6.5560 O   0  0  0  0  0  0  0  0  0  0  0  0
    4.9479   -3.4175    4.4859 C   0  0  0  0  0  0  0  0  0  0  0  0
    4.7901   -3.4884    3.1013 C   0  0  0  0  0  0  0  0  0  0  0  0
   -1.4546   -0.0217   -0.9618 O   0  0  0  0  0  0  0  0  0  0  0  0
   -1.9327   -0.1920    0.3648 C   0  0  1  0  0  0  0  0  0  0  0  0
   -3.3331    0.0831    0.3784 O   0  0  0  0  0  0  0  0  0  0  0  0
   -3.8365    1.3751    0.1904 C   0  0  0  0  0  0  0  0  0  0  0  0
   -4.0275    1.9110   -1.0964 C   0  0  0  0  0  0  0  0  0  0  0  0
   -4.4770    3.1528   -1.2293 O   0  0  0  0  0  0  0  0  0  0  0  0
   -4.7699    3.9391   -0.1996 C   0  0  0  0  0  0  0  0  0  0  0  0
   -4.5908    3.4930    1.1320 C   0  0  0  0  0  0  0  0  0  0  0  0
   -4.8845    4.3939    2.1980 C   0  0  0  0  0  0  0  0  0  0  0  0
   -4.6299    4.0994    3.5420 O   0  0  0  0  0  0  0  0  0  0  0  0
   -5.4311    5.6618    1.9260 C   0  0  0  0  0  0  0  0  0  0  0  0
   -5.7414    6.4715    3.0360 O   0  0  0  0  0  0  0  0  0  0  0  0
   -6.2967    7.7815    2.9991 C   0  0  0  0  0  0  0  0  0  0  0  0
   -5.6239    6.0703    0.5863 C   0  0  0  0  0  0  0  0  0  0  0  0
   -6.1532    7.3224    0.2788 O   0  0  0  0  0  0  0  0  0  0  0  0
   -5.2722    5.2123   -0.4575 C   0  0  0  0  0  0  0  0  0  0  0  0
   -4.1525    2.1576    1.3062 C   0  0  0  0  0  0  0  0  0  0  0  0
   -4.0583    1.6343    2.4473 O   0  0  0  0  0  0  0  0  0  0  0  0
   -3.7344    1.1396   -2.3232 C   0  0  0  0  0  0  0  0  0  0  0  0
   -3.0207    1.7464   -3.3650 C   0  0  0  0  0  0  0  0  0  0  0  0
   -2.6915    1.0203   -4.5106 C   0  0  0  0  0  0  0  0  0  0  0  0
   -3.0798   -0.3172   -4.6443 C   0  0  0  0  0  0  0  0  0  0  0  0
   -2.7019   -0.9934   -5.8060 O   0  0  0  0  0  0  0  0  0  0  0  0
   -3.8302   -0.9293   -3.6123 C   0  0  0  0  0  0  0  0  0  0  0  0
   -4.2708   -2.2523   -3.6838 O   0  0  0  0  0  0  0  0  0  0  0  0
   -4.1541   -0.1931   -2.4656 C   0  0  0  0  0  0  0  0  0  0  0  0
   -1.7036   -1.8693    3.8187 O   0  0  0  0  0  0  0  0  0  0  0  0
   -1.1557   -1.9515    5.1177 C   0  0  0  0  0  0  0  0  0  0  0  0
    0.0916   -2.8412    5.0867 C   0  0  2  0  0  0  0  0  0  0  0  0
   -0.2600   -4.1930    5.2844 O   0  0  0  0  0  0  0  0  0  0  0  0
    1.1723   -2.4054    6.1017 C   0  0  0  0  0  0  0  0  0  0  0  0
    0.6710   -2.4367    7.4123 O   0  0  0  0  0  0  0  0  0  0  0  0
    0.5441   -2.6310    3.6556 C   0  0  1  0  0  0  0  0  0  0  0  0
    1.3276   -3.6879    3.1501 O   0  0  0  0  0  0  0  0  0  0  0  0
   -1.1691   -3.4408    2.6013 H   0  0  0  0  0  0  0  0  0  0  0  0
   -2.6335   -1.9556    1.4356 H   0  0  0  0  0  0  0  0  0  0  0  0
   -1.1634   -3.6044    0.2061 H   0  0  0  0  0  0  0  0  0  0  0  0
   -2.4494   -3.5557   -1.5637 H   0  0  0  0  0  0  0  0  0  0  0  0
   -0.3408   -2.4958   -2.1262 H   0  0  0  0  0  0  0  0  0  0  0  0
    1.0610   -3.5508   -0.8240 H   0  0  0  0  0  0  0  0  0  0  0  0
    0.5083   -0.1852   -0.3008 H   0  0  0  0  0  0  0  0  0  0  0  0
    0.4293    1.0772   -2.3798 H   0  0  0  0  0  0  0  0  0  0  0  0
   -0.2404   -0.3393   -3.2772 H   0  0  0  0  0  0  0  0  0  0  0  0
    2.5233    1.2621   -3.0968 H   0  0  0  0  0  0  0  0  0  0  0  0
    2.1698    1.3242   -6.4969 H   0  0  0  0  0  0  0  0  0  0  0  0
    3.4992   -0.3253   -7.7152 H   0  0  0  0  0  0  0  0  0  0  0  0
    3.6090   -1.3750   -6.2705 H   0  0  0  0  0  0  0  0  0  0  0  0
    1.3093   -0.6573   -7.7800 H   0  0  0  0  0  0  0  0  0  0  0  0
    4.7509    1.2399   -6.3966 H   0  0  0  0  0  0  0  0  0  0  0  0
    3.1956    2.7666   -4.5733 H   0  0  0  0  0  0  0  0  0  0  0  0
    5.1840    1.4326   -3.6336 H   0  0  0  0  0  0  0  0  0  0  0  0
    6.5292   -0.2639   -4.0133 H   0  0  0  0  0  0  0  0  0  0  0  0
    3.9153   -1.3244   -4.0095 H   0  0  0  0  0  0  0  0  0  0  0  0
    4.6536   -0.4723    0.4637 H   0  0  0  0  0  0  0  0  0  0  0  0
    3.9935   -3.4621    0.5016 H   0  0  0  0  0  0  0  0  0  0  0  0
    3.6662   -0.3324    2.5233 H   0  0  0  0  0  0  0  0  0  0  0  0
    3.1393    1.9757    5.4181 H   0  0  0  0  0  0  0  0  0  0  0  0
    4.0102    1.6623    3.8708 H   0  0  0  0  0  0  0  0  0  0  0  0
    2.3370    0.9917    4.1373 H   0  0  0  0  0  0  0  0  0  0  0  0
    4.6226   -1.3752    7.1050 H   0  0  0  0  0  0  0  0  0  0  0  0
    5.2933   -4.2873    5.0302 H   0  0  0  0  0  0  0  0  0  0  0  0
    5.0183   -4.4165    2.5913 H   0  0  0  0  0  0  0  0  0  0  0  0
   -1.4320    0.5493    1.0300 H   0  0  0  0  0  0  0  0  0  0  0  0
   -3.9698    3.4076    3.8636 H   0  0  0  0  0  0  0  0  0  0  0  0
   -6.4279    8.1444    4.0390 H   0  0  0  0  0  0  0  0  0  0  0  0
   -7.2933    7.7633    2.5101 H   0  0  0  0  0  0  0  0  0  0  0  0
   -5.6082    8.4765    2.4742 H   0  0  0  0  0  0  0  0  0  0  0  0
   -6.2925    7.6245   -0.6785 H   0  0  0  0  0  0  0  0  0  0  0  0
   -5.4089    5.5305   -1.4840 H   0  0  0  0  0  0  0  0  0  0  0  0
   -2.6924    2.7751   -3.2788 H   0  0  0  0  0  0  0  0  0  0  0  0
   -2.1202    1.4972   -5.2971 H   0  0  0  0  0  0  0  0  0  0  0  0
   -2.9161   -1.9629   -5.9897 H   0  0  0  0  0  0  0  0  0  0  0  0
   -4.0971   -2.8635   -4.4684 H   0  0  0  0  0  0  0  0  0  0  0  0
   -4.7361   -0.6664   -1.6845 H   0  0  0  0  0  0  0  0  0  0  0  0
   -1.9211   -2.3464    5.8192 H   0  0  0  0  0  0  0  0  0  0  0  0
   -0.8956   -0.9214    5.4475 H   0  0  0  0  0  0  0  0  0  0  0  0
   -0.6822   -4.2745    6.1788 H   0  0  0  0  0  0  0  0  0  0  0  0
    1.5030   -1.3669    5.8862 H   0  0  0  0  0  0  0  0  0  0  0  0
    2.0638   -3.0664    6.0038 H   0  0  0  0  0  0  0  0  0  0  0  0
    0.8650   -3.3399    7.7757 H   0  0  0  0  0  0  0  0  0  0  0  0
    1.1327   -1.6884    3.5762 H   0  0  0  0  0  0  0  0  0  0  0  0
    0.7603   -4.4974    3.0677 H   0  0  0  0  0  0  0  0  0  0  0  0
  1  2  1  0
  2  3  1  0
  3  4  1  0
  4  5  1  0
  4  6  1  0
  6  7  1  0
  6  8  1  0
  8  9  1  0
  9 10  1  0
 10 11  1  0
 11 12  1  0
 12 13  1  0
 13 14  1  0
 14 15  1  0
 13 16  1  0
 16 17  1  0
 16 18  1  0
 18 19  1  0
 18 20  1  0
 20 21  1  0
 21 22  1  0
 22 23  2  0
 22 24  1  0
 24 25  2  0
 25 26  1  0
 26 27  2  0
 27 28  1  0
 28 29  1  0
 29 30  1  0
 28 31  2  0
 31 32  1  0
 31 33  1  0
 33 34  2  0
  8 35  1  0
 35 36  1  0
 36 37  1  0
 37 38  1  0
 38 39  2  0
 39 40  1  0
 40 41  1  0
 41 42  2  0
 42 43  1  0
 43 44  1  0
 43 45  2  0
 45 46  1  0
 46 47  1  0
 45 48  1  0
 48 49  1  0
 48 50  2  0
 42 51  1  0
 51 52  2  0
 39 53  1  0
 53 54  2  0
 54 55  1  0
 55 56  2  0
 56 57  1  0
 56 58  1  0
 58 59  1  0
 58 60  2  0
  1 61  1  0
 61 62  1  0
 62 63  1  0
 63 64  1  6
 63 65  1  0
 65 66  1  0
 63 67  1  0
 67 68  1  0
 67  1  1  0
 36  3  1  0
 51 38  1  0
 60 53  1  0
 20 11  1  0
 34 26  1  0
 50 41  1  0
  1 69  1  6
  3 70  1  1
  4 71  1  1
  5 72  1  0
  6 73  1  6
  7 74  1  0
  8 75  1  1
  9 76  1  0
  9 77  1  0
 11 78  1  1
 13 79  1  6
 14 80  1  0
 14 81  1  0
 15 82  1  0
 16 83  1  6
 17 84  1  0
 18 85  1  1
 19 86  1  0
 20 87  1  6
 24 88  1  0
 25 89  1  0
 27 90  1  0
 30 91  1  0
 30 92  1  0
 30 93  1  0
 32 94  1  0
 33 95  1  0
 34 96  1  0
 36 97  1  1
 44 98  1  0
 47 99  1  0
 47100  1  0
 47101  1  0
 49102  1  0
 50103  1  0
 54104  1  0
 55105  1  0
 57106  1  0
 59107  1  0
 60108  1  0
 62109  1  0
 62110  1  0
 64111  1  0
 65112  1  0
 65113  1  0
 66114  1  0
 67115  1  1
 68116  1  0
M  END
>  <LIG_ID>  (229) 
228

>  <_smiles>  (229) 
[H][C@@]1(O[C@]2([H])[C@@]([H])(O)[C@]([H])(O)[C@@]([H])(CO[C@]3([H])O[C@]([H])(CO)[C@@]([H])(O)[C@]([H])(O)[C@@]3([H])OC(=O)\C=C\C3=CC(OC)=C(O)C=C3)O[C@@]2([H])OC2=C(OC3=C(C(O)=C(OC)C(O)=C3)C2=O)C2=CC=C(O)C(O)=C2)OC[C@](O)(CO)[C@@]1([H])O

>  <_name>  (229) 
Patuletin 3-O-(2''-feruloylglucosyl)(1->6)-[apiosyl(1->2)]-glucoside

>  <_molecular_weight>  (229) 
964.826

>  <_formula>  (229) 
C43H48O25

>  <_logP>  (229) 
-2.2626999999999957

>  <_molecular_wt_calculated>  (229) 
964.8320000000018

>  <_havy_atom_count>  (229) 
68

>  <_hydrogen_acceptors>  (229) 
25

>  <_hydrogen_donors>  (229) 
13

>  <_rotatable_bonds>  (229) 
30

>  <_amide_bonds>  (229) 
0

>  <_ring_count>  (229) 
7

$$$$
Spinacetin 3-O-(2"-p-coumaroylglucosyl)(1->6)-[apiosyl(1->2)]-glucoside
     RDKit          3D

115121  0  0  0  0  0  0  0  0999 V2000
   -3.2718   -2.7657    2.6029 C   0  0  2  0  0  0  0  0  0  0  0  0
   -2.1076   -2.0714    3.0176 O   0  0  0  0  0  0  0  0  0  0  0  0
   -1.2678   -1.7391    1.9220 C   0  0  1  0  0  0  0  0  0  0  0  0
   -1.4172   -0.2437    1.5916 C   0  0  2  0  0  0  0  0  0  0  0  0
   -2.7617    0.0128    1.2006 O   0  0  0  0  0  0  0  0  0  0  0  0
   -3.2070    1.2971    0.8761 C   0  0  0  0  0  0  0  0  0  0  0  0
   -3.4642    1.6439   -0.4624 C   0  0  0  0  0  0  0  0  0  0  0  0
   -3.8295    2.8866   -0.7627 O   0  0  0  0  0  0  0  0  0  0  0  0
   -3.9939    3.8391    0.1487 C   0  0  0  0  0  0  0  0  0  0  0  0
   -4.3792    5.1152   -0.2657 C   0  0  0  0  0  0  0  0  0  0  0  0
   -4.5667    6.1375    0.6650 C   0  0  0  0  0  0  0  0  0  0  0  0
   -4.9397    7.4021    0.2099 O   0  0  0  0  0  0  0  0  0  0  0  0
   -4.3761    5.8828    2.0340 C   0  0  0  0  0  0  0  0  0  0  0  0
   -4.5795    6.9026    2.9652 O   0  0  0  0  0  0  0  0  0  0  0  0
   -5.8589    7.1287    3.5424 C   0  0  0  0  0  0  0  0  0  0  0  0
   -3.9726    4.6041    2.4673 C   0  0  0  0  0  0  0  0  0  0  0  0
   -3.7593    4.3653    3.8274 O   0  0  0  0  0  0  0  0  0  0  0  0
   -3.7827    3.5685    1.5205 C   0  0  0  0  0  0  0  0  0  0  0  0
   -3.3837    2.2630    1.8755 C   0  0  0  0  0  0  0  0  0  0  0  0
   -3.1885    1.9462    3.0805 O   0  0  0  0  0  0  0  0  0  0  0  0
   -3.3062    0.6710   -1.5675 C   0  0  0  0  0  0  0  0  0  0  0  0
   -3.7756   -0.6477   -1.4530 C   0  0  0  0  0  0  0  0  0  0  0  0
   -3.6322   -1.5416   -2.5150 C   0  0  0  0  0  0  0  0  0  0  0  0
   -3.0363   -1.1315   -3.7109 C   0  0  0  0  0  0  0  0  0  0  0  0
   -2.9170   -2.0512   -4.7529 O   0  0  0  0  0  0  0  0  0  0  0  0
   -2.5725    0.1894   -3.8497 C   0  0  0  0  0  0  0  0  0  0  0  0
   -1.9815    0.5761   -5.0630 O   0  0  0  0  0  0  0  0  0  0  0  0
   -1.3892    1.8480   -5.3043 C   0  0  0  0  0  0  0  0  0  0  0  0
   -2.7151    1.0853   -2.7716 C   0  0  0  0  0  0  0  0  0  0  0  0
   -0.5596    0.1049    0.5192 O   0  0  0  0  0  0  0  0  0  0  0  0
    0.7972   -0.0125    0.9090 C   0  0  0  0  0  0  0  0  0  0  0  0
    1.6756    0.5275   -0.2251 C   0  0  0  0  0  0  0  0  0  0  0  0
    1.4703   -0.2408   -1.3958 O   0  0  0  0  0  0  0  0  0  0  0  0
    2.5159   -0.0416   -2.3328 C   0  0  2  0  0  0  0  0  0  0  0  0
    1.9784   -0.1585   -3.6460 O   0  0  0  0  0  0  0  0  0  0  0  0
    1.8623   -1.5148   -4.0351 C   0  0  1  0  0  0  0  0  0  0  0  0
    0.9087   -1.6156   -5.2310 C   0  0  0  0  0  0  0  0  0  0  0  0
    0.7761   -2.9513   -5.6327 O   0  0  0  0  0  0  0  0  0  0  0  0
    3.2717   -2.0985   -4.3271 C   0  0  1  0  0  0  0  0  0  0  0  0
    3.6430   -1.8622   -5.6624 O   0  0  0  0  0  0  0  0  0  0  0  0
    4.3300   -1.4742   -3.3865 C   0  0  2  0  0  0  0  0  0  0  0  0
    5.3508   -2.4114   -3.1550 O   0  0  0  0  0  0  0  0  0  0  0  0
    3.6857   -1.0379   -2.0576 C   0  0  1  0  0  0  0  0  0  0  0  0
    4.6547   -0.4072   -1.2174 O   0  0  0  0  0  0  0  0  0  0  0  0
    5.4589   -1.0941   -0.2984 C   0  0  0  0  0  0  0  0  0  0  0  0
    5.3770   -2.3471   -0.1848 O   0  0  0  0  0  0  0  0  0  0  0  0
    6.4013   -0.3586    0.5578 C   0  0  0  0  0  0  0  0  0  0  0  0
    6.5231    0.9741    0.4923 C   0  0  0  0  0  0  0  0  0  0  0  0
    7.4612    1.7589    1.3321 C   0  0  0  0  0  0  0  0  0  0  0  0
    7.8245    3.0487    0.9086 C   0  0  0  0  0  0  0  0  0  0  0  0
    8.6974    3.8291    1.6724 C   0  0  0  0  0  0  0  0  0  0  0  0
    9.2115    3.3352    2.8774 C   0  0  0  0  0  0  0  0  0  0  0  0
   10.0823    4.1035    3.6468 O   0  0  0  0  0  0  0  0  0  0  0  0
    8.8446    2.0601    3.3156 C   0  0  0  0  0  0  0  0  0  0  0  0
    7.9723    1.2757    2.5543 C   0  0  0  0  0  0  0  0  0  0  0  0
    1.1465   -1.4861    1.2319 C   0  0  1  0  0  0  0  0  0  0  0  0
    2.4732   -1.5647    1.6889 O   0  0  0  0  0  0  0  0  0  0  0  0
    0.1902   -2.0235    2.3139 C   0  0  2  0  0  0  0  0  0  0  0  0
    0.3637   -3.4093    2.4633 O   0  0  0  0  0  0  0  0  0  0  0  0
   -4.2910   -2.5423    3.5541 O   0  0  0  0  0  0  0  0  0  0  0  0
   -4.7567   -3.7969    3.9960 C   0  0  0  0  0  0  0  0  0  0  0  0
   -4.3063   -4.8662    3.0093 C   0  0  2  0  0  0  0  0  0  0  0  0
   -5.2549   -4.9470    1.9679 O   0  0  0  0  0  0  0  0  0  0  0  0
   -4.1092   -6.2410    3.6929 C   0  0  0  0  0  0  0  0  0  0  0  0
   -5.3199   -6.7090    4.2250 O   0  0  0  0  0  0  0  0  0  0  0  0
   -3.0034   -4.2673    2.5147 C   0  0  1  0  0  0  0  0  0  0  0  0
   -2.7040   -4.6480    1.1962 O   0  0  0  0  0  0  0  0  0  0  0  0
   -3.6629   -2.3896    1.6275 H   0  0  0  0  0  0  0  0  0  0  0  0
   -1.4860   -2.3280    0.9974 H   0  0  0  0  0  0  0  0  0  0  0  0
   -1.1896    0.3652    2.4976 H   0  0  0  0  0  0  0  0  0  0  0  0
   -4.5325    5.3148   -1.3192 H   0  0  0  0  0  0  0  0  0  0  0  0
   -5.0688    8.1862    0.8377 H   0  0  0  0  0  0  0  0  0  0  0  0
   -5.7951    7.9820    4.2482 H   0  0  0  0  0  0  0  0  0  0  0  0
   -6.1916    6.2257    4.0965 H   0  0  0  0  0  0  0  0  0  0  0  0
   -6.5984    7.3699    2.7499 H   0  0  0  0  0  0  0  0  0  0  0  0
   -3.8677    5.0857    4.5308 H   0  0  0  0  0  0  0  0  0  0  0  0
   -4.2765   -0.9825   -0.5540 H   0  0  0  0  0  0  0  0  0  0  0  0
   -3.9973   -2.5558   -2.4129 H   0  0  0  0  0  0  0  0  0  0  0  0
   -2.5014   -1.8076   -5.6438 H   0  0  0  0  0  0  0  0  0  0  0  0
   -2.1537    2.6485   -5.2181 H   0  0  0  0  0  0  0  0  0  0  0  0
   -0.5627    2.0261   -4.5839 H   0  0  0  0  0  0  0  0  0  0  0  0
   -0.9728    1.8638   -6.3322 H   0  0  0  0  0  0  0  0  0  0  0  0
   -2.3622    2.1044   -2.8592 H   0  0  0  0  0  0  0  0  0  0  0  0
    0.9979    0.6220    1.8048 H   0  0  0  0  0  0  0  0  0  0  0  0
    2.7347    0.5110    0.1158 H   0  0  0  0  0  0  0  0  0  0  0  0
    1.3933    1.5852   -0.4241 H   0  0  0  0  0  0  0  0  0  0  0  0
    2.9215    0.9973   -2.2756 H   0  0  0  0  0  0  0  0  0  0  0  0
    1.3906   -2.1110   -3.2165 H   0  0  0  0  0  0  0  0  0  0  0  0
   -0.0838   -1.2245   -4.9235 H   0  0  0  0  0  0  0  0  0  0  0  0
    1.2803   -0.9949   -6.0769 H   0  0  0  0  0  0  0  0  0  0  0  0
    0.1397   -2.9472   -6.3942 H   0  0  0  0  0  0  0  0  0  0  0  0
    3.2154   -3.1988   -4.1482 H   0  0  0  0  0  0  0  0  0  0  0  0
    4.3954   -2.4781   -5.8636 H   0  0  0  0  0  0  0  0  0  0  0  0
    4.7500   -0.5634   -3.8799 H   0  0  0  0  0  0  0  0  0  0  0  0
    6.1863   -1.8995   -2.9957 H   0  0  0  0  0  0  0  0  0  0  0  0
    3.2703   -1.9374   -1.5467 H   0  0  0  0  0  0  0  0  0  0  0  0
    7.0127   -0.9378    1.2359 H   0  0  0  0  0  0  0  0  0  0  0  0
    5.9362    1.5192   -0.2382 H   0  0  0  0  0  0  0  0  0  0  0  0
    7.4380    3.4504   -0.0204 H   0  0  0  0  0  0  0  0  0  0  0  0
    8.9722    4.8177    1.3271 H   0  0  0  0  0  0  0  0  0  0  0  0
   10.3661    5.0321    3.3568 H   0  0  0  0  0  0  0  0  0  0  0  0
    9.2305    1.6784    4.2525 H   0  0  0  0  0  0  0  0  0  0  0  0
    7.6869    0.3077    2.9414 H   0  0  0  0  0  0  0  0  0  0  0  0
    1.0180   -2.0977    0.3062 H   0  0  0  0  0  0  0  0  0  0  0  0
    2.8010   -2.4764    1.4727 H   0  0  0  0  0  0  0  0  0  0  0  0
    0.4029   -1.5054    3.2807 H   0  0  0  0  0  0  0  0  0  0  0  0
    1.1405   -3.5405    3.0672 H   0  0  0  0  0  0  0  0  0  0  0  0
   -5.8647   -3.7754    4.0802 H   0  0  0  0  0  0  0  0  0  0  0  0
   -4.3396   -3.9847    5.0104 H   0  0  0  0  0  0  0  0  0  0  0  0
   -4.9903   -5.6929    1.3683 H   0  0  0  0  0  0  0  0  0  0  0  0
   -3.6952   -6.9775    2.9664 H   0  0  0  0  0  0  0  0  0  0  0  0
   -3.3737   -6.1546    4.5216 H   0  0  0  0  0  0  0  0  0  0  0  0
   -5.8329   -7.0983    3.4697 H   0  0  0  0  0  0  0  0  0  0  0  0
   -2.1606   -4.5314    3.1984 H   0  0  0  0  0  0  0  0  0  0  0  0
   -2.3302   -5.5660    1.2468 H   0  0  0  0  0  0  0  0  0  0  0  0
  1  2  1  0
  2  3  1  0
  3  4  1  0
  4  5  1  0
  5  6  1  0
  6  7  2  0
  7  8  1  0
  8  9  1  0
  9 10  2  0
 10 11  1  0
 11 12  1  0
 11 13  2  0
 13 14  1  0
 14 15  1  0
 13 16  1  0
 16 17  1  0
 16 18  2  0
 18 19  1  0
 19 20  2  0
  7 21  1  0
 21 22  2  0
 22 23  1  0
 23 24  2  0
 24 25  1  0
 24 26  1  0
 26 27  1  0
 27 28  1  0
 26 29  2  0
  4 30  1  0
 30 31  1  0
 31 32  1  0
 32 33  1  0
 33 34  1  0
 34 35  1  0
 35 36  1  0
 36 37  1  0
 37 38  1  0
 36 39  1  0
 39 40  1  0
 39 41  1  0
 41 42  1  0
 41 43  1  0
 43 44  1  0
 44 45  1  0
 45 46  2  0
 45 47  1  0
 47 48  2  0
 48 49  1  0
 49 50  2  0
 50 51  1  0
 51 52  2  0
 52 53  1  0
 52 54  1  0
 54 55  2  0
 31 56  1  0
 56 57  1  0
 56 58  1  0
 58 59  1  0
  1 60  1  0
 60 61  1  0
 61 62  1  0
 62 63  1  6
 62 64  1  0
 64 65  1  0
 62 66  1  0
 66 67  1  0
 66  1  1  0
 58  3  1  0
 19  6  1  0
 29 21  1  0
 43 34  1  0
 55 49  1  0
 18  9  1  0
  1 68  1  6
  3 69  1  6
  4 70  1  1
 10 71  1  0
 12 72  1  0
 15 73  1  0
 15 74  1  0
 15 75  1  0
 17 76  1  0
 22 77  1  0
 23 78  1  0
 25 79  1  0
 28 80  1  0
 28 81  1  0
 28 82  1  0
 29 83  1  0
 31 84  1  0
 32 85  1  0
 32 86  1  0
 34 87  1  6
 36 88  1  1
 37 89  1  0
 37 90  1  0
 38 91  1  0
 39 92  1  6
 40 93  1  0
 41 94  1  6
 42 95  1  0
 43 96  1  1
 47 97  1  0
 48 98  1  0
 50 99  1  0
 51100  1  0
 53101  1  0
 54102  1  0
 55103  1  0
 56104  1  6
 57105  1  0
 58106  1  1
 59107  1  0
 61108  1  0
 61109  1  0
 63110  1  0
 64111  1  0
 64112  1  0
 65113  1  0
 66114  1  1
 67115  1  0
M  END
>  <LIG_ID>  (230) 
229

>  <_smiles>  (230) 
[H][C@@]1(O[C@@]2([H])[C@]([H])(OC3=C(OC4=CC(O)=C(OC)C(O)=C4C3=O)C3=CC=C(O)C(OC)=C3)OC(CO[C@]3([H])O[C@@]([H])(CO)[C@@]([H])(O)[C@]([H])(O)[C@@]3([H])OC(=O)\C=C\C3=CC=C(O)C=C3)[C@@]([H])(O)[C@]2([H])O)OC[C@](O)(CO)[C@@]1([H])O

>  <_name>  (230) 
Spinacetin 3-O-(2"-p-coumaroylglucosyl)(1->6)-[apiosyl(1->2)]-glucoside

>  <_molecular_weight>  (230) 
948.827

>  <_formula>  (230) 
C43H48O24

>  <_logP>  (230) 
-1.9682999999999997

>  <_molecular_wt_calculated>  (230) 
948.8330000000019

>  <_havy_atom_count>  (230) 
67

>  <_hydrogen_acceptors>  (230) 
24

>  <_hydrogen_donors>  (230) 
12

>  <_rotatable_bonds>  (230) 
29

>  <_amide_bonds>  (230) 
0

>  <_ring_count>  (230) 
7

$$$$
Spinacetin 3-O-(2"-feruloylglucosyl)(1->6)-[apiosyl(1->2)]-glucoside
     RDKit          3D

119125  0  0  0  0  0  0  0  0999 V2000
   -4.4161   -4.1648   -0.2926 C   0  0  2  0  0  0  0  0  0  0  0  0
   -3.8483   -4.0317    0.9997 O   0  0  0  0  0  0  0  0  0  0  0  0
   -2.5787   -3.3961    0.9471 C   0  0  1  0  0  0  0  0  0  0  0  0
   -2.6897   -1.9593    1.5377 C   0  0  2  0  0  0  0  0  0  0  0  0
   -2.9744   -1.0538    0.4741 O   0  0  0  0  0  0  0  0  0  0  0  0
   -3.3058    0.3112    0.5560 C   0  0  0  0  0  0  0  0  0  0  0  0
   -3.5498    0.9920   -0.6499 C   0  0  0  0  0  0  0  0  0  0  0  0
   -3.9169    2.2675   -0.6390 O   0  0  0  0  0  0  0  0  0  0  0  0
   -4.0509    2.9758    0.4746 C   0  0  0  0  0  0  0  0  0  0  0  0
   -4.4316    4.3126    0.3813 C   0  0  0  0  0  0  0  0  0  0  0  0
   -4.5817    5.0981    1.5282 C   0  0  0  0  0  0  0  0  0  0  0  0
   -4.9637    6.4306    1.3838 O   0  0  0  0  0  0  0  0  0  0  0  0
   -4.3454    4.5339    2.8052 C   0  0  0  0  0  0  0  0  0  0  0  0
   -4.4740    5.2593    4.0055 O   0  0  0  0  0  0  0  0  0  0  0  0
   -4.8468    6.6268    4.1341 C   0  0  0  0  0  0  0  0  0  0  0  0
   -3.9612    3.1787    2.9025 C   0  0  0  0  0  0  0  0  0  0  0  0
   -3.7262    2.6163    4.1610 O   0  0  0  0  0  0  0  0  0  0  0  0
   -3.8123    2.3892    1.7349 C   0  0  0  0  0  0  0  0  0  0  0  0
   -3.4400    1.0256    1.7672 C   0  0  0  0  0  0  0  0  0  0  0  0
   -3.2402    0.4500    2.8692 O   0  0  0  0  0  0  0  0  0  0  0  0
   -3.4359    0.3029   -1.9528 C   0  0  0  0  0  0  0  0  0  0  0  0
   -2.2965   -0.4516   -2.2730 C   0  0  0  0  0  0  0  0  0  0  0  0
   -2.2152   -1.1190   -3.4951 C   0  0  0  0  0  0  0  0  0  0  0  0
   -3.2649   -1.0413   -4.4150 C   0  0  0  0  0  0  0  0  0  0  0  0
   -3.1531   -1.7297   -5.6229 O   0  0  0  0  0  0  0  0  0  0  0  0
   -4.4095   -0.2794   -4.1158 C   0  0  0  0  0  0  0  0  0  0  0  0
   -5.4522   -0.2262   -5.0544 O   0  0  0  0  0  0  0  0  0  0  0  0
   -6.6789    0.4700   -4.8595 C   0  0  0  0  0  0  0  0  0  0  0  0
   -4.4801    0.4016   -2.8837 C   0  0  0  0  0  0  0  0  0  0  0  0
   -1.5212   -1.5411    2.2378 O   0  0  0  0  0  0  0  0  0  0  0  0
   -0.3509   -1.9638    1.5665 C   0  0  0  0  0  0  0  0  0  0  0  0
    0.8434   -1.1376    2.0528 C   0  0  0  0  0  0  0  0  0  0  0  0
    1.9819   -1.4746    1.2821 O   0  0  0  0  0  0  0  0  0  0  0  0
    2.8480   -0.3607    1.1438 C   0  0  2  0  0  0  0  0  0  0  0  0
    2.2784    0.6499    0.3188 O   0  0  0  0  0  0  0  0  0  0  0  0
    2.0121    0.1677   -0.9893 C   0  0  1  0  0  0  0  0  0  0  0  0
    1.2161    1.2381   -1.7500 C   0  0  0  0  0  0  0  0  0  0  0  0
    0.8168    0.7627   -3.0084 O   0  0  0  0  0  0  0  0  0  0  0  0
    3.3316   -0.2023   -1.7077 C   0  0  1  0  0  0  0  0  0  0  0  0
    4.1447    0.9357   -1.8596 O   0  0  0  0  0  0  0  0  0  0  0  0
    4.0887   -1.2588   -0.8854 C   0  0  2  0  0  0  0  0  0  0  0  0
    3.4113   -2.4874   -0.9707 O   0  0  0  0  0  0  0  0  0  0  0  0
    4.2121   -0.8184    0.5930 C   0  0  1  0  0  0  0  0  0  0  0  0
    5.1421    0.2604    0.7151 O   0  0  0  0  0  0  0  0  0  0  0  0
    6.5297    0.0996    0.6387 C   0  0  0  0  0  0  0  0  0  0  0  0
    7.0361   -1.0504    0.5178 O   0  0  0  0  0  0  0  0  0  0  0  0
    7.3849    1.2957    0.7047 C   0  0  0  0  0  0  0  0  0  0  0  0
    8.7229    1.2238    0.6588 C   0  0  0  0  0  0  0  0  0  0  0  0
    9.6142    2.4083    0.7318 C   0  0  0  0  0  0  0  0  0  0  0  0
   10.9514    2.2214    1.1212 C   0  0  0  0  0  0  0  0  0  0  0  0
   11.8408    3.3117    1.1968 C   0  0  0  0  0  0  0  0  0  0  0  0
   13.1793    3.1601    1.5921 O   0  0  0  0  0  0  0  0  0  0  0  0
   13.7782    1.9198    1.9537 C   0  0  0  0  0  0  0  0  0  0  0  0
   11.3839    4.5947    0.8679 C   0  0  0  0  0  0  0  0  0  0  0  0
   12.2584    5.6777    0.9416 O   0  0  0  0  0  0  0  0  0  0  0  0
   10.0574    4.7853    0.4638 C   0  0  0  0  0  0  0  0  0  0  0  0
    9.1787    3.7028    0.3906 C   0  0  0  0  0  0  0  0  0  0  0  0
   -0.1741   -3.4987    1.7457 C   0  0  1  0  0  0  0  0  0  0  0  0
    0.4887   -3.7982    2.9496 O   0  0  0  0  0  0  0  0  0  0  0  0
   -1.5555   -4.2061    1.7559 C   0  0  2  0  0  0  0  0  0  0  0  0
   -1.4442   -5.4960    1.2127 O   0  0  0  0  0  0  0  0  0  0  0  0
   -4.5843   -2.8973   -0.9031 O   0  0  0  0  0  0  0  0  0  0  0  0
   -5.9047   -2.8043   -1.3872 C   0  0  0  0  0  0  0  0  0  0  0  0
   -6.5696   -4.1803   -1.2996 C   0  0  2  0  0  0  0  0  0  0  0  0
   -6.4187   -4.8768   -2.5194 O   0  0  0  0  0  0  0  0  0  0  0  0
   -8.0773   -4.0883   -0.9851 C   0  0  0  0  0  0  0  0  0  0  0  0
   -8.3107   -3.4029    0.2164 O   0  0  0  0  0  0  0  0  0  0  0  0
   -5.7749   -4.8447   -0.1858 C   0  0  1  0  0  0  0  0  0  0  0  0
   -5.6570   -6.2322   -0.3695 O   0  0  0  0  0  0  0  0  0  0  0  0
   -3.7508   -4.7852   -0.9384 H   0  0  0  0  0  0  0  0  0  0  0  0
   -2.1673   -3.3259   -0.0923 H   0  0  0  0  0  0  0  0  0  0  0  0
   -3.5384   -1.9522    2.2554 H   0  0  0  0  0  0  0  0  0  0  0  0
   -4.6117    4.7458   -0.5952 H   0  0  0  0  0  0  0  0  0  0  0  0
   -5.1349    6.8432    0.4741 H   0  0  0  0  0  0  0  0  0  0  0  0
   -5.8681    6.7868    3.7294 H   0  0  0  0  0  0  0  0  0  0  0  0
   -4.1079    7.2769    3.6202 H   0  0  0  0  0  0  0  0  0  0  0  0
   -4.8550    6.8960    5.2101 H   0  0  0  0  0  0  0  0  0  0  0  0
   -3.8190    3.1395    5.0231 H   0  0  0  0  0  0  0  0  0  0  0  0
   -1.4668   -0.5188   -1.5807 H   0  0  0  0  0  0  0  0  0  0  0  0
   -1.3322   -1.7003   -3.7288 H   0  0  0  0  0  0  0  0  0  0  0  0
   -3.8826   -1.7098   -6.3252 H   0  0  0  0  0  0  0  0  0  0  0  0
   -7.2116    0.0633   -3.9738 H   0  0  0  0  0  0  0  0  0  0  0  0
   -6.4853    1.5552   -4.7258 H   0  0  0  0  0  0  0  0  0  0  0  0
   -7.3200    0.3315   -5.7539 H   0  0  0  0  0  0  0  0  0  0  0  0
   -5.3537    0.9876   -2.6302 H   0  0  0  0  0  0  0  0  0  0  0  0
   -0.4373   -1.7421    0.4753 H   0  0  0  0  0  0  0  0  0  0  0  0
    1.0462   -1.3358    3.1273 H   0  0  0  0  0  0  0  0  0  0  0  0
    0.5568   -0.0630    1.9593 H   0  0  0  0  0  0  0  0  0  0  0  0
    3.0459    0.0827    2.1481 H   0  0  0  0  0  0  0  0  0  0  0  0
    1.3560   -0.7317   -0.9503 H   0  0  0  0  0  0  0  0  0  0  0  0
    0.3011    1.4796   -1.1674 H   0  0  0  0  0  0  0  0  0  0  0  0
    1.8020    2.1818   -1.8406 H   0  0  0  0  0  0  0  0  0  0  0  0
    1.5211    1.0285   -3.6549 H   0  0  0  0  0  0  0  0  0  0  0  0
    3.1018   -0.6488   -2.7050 H   0  0  0  0  0  0  0  0  0  0  0  0
    3.9515    1.3185   -2.7548 H   0  0  0  0  0  0  0  0  0  0  0  0
    5.1046   -1.3789   -1.3281 H   0  0  0  0  0  0  0  0  0  0  0  0
    4.0451   -3.1873   -0.6635 H   0  0  0  0  0  0  0  0  0  0  0  0
    4.5685   -1.6728    1.2118 H   0  0  0  0  0  0  0  0  0  0  0  0
    6.8866    2.2482    0.8177 H   0  0  0  0  0  0  0  0  0  0  0  0
    9.1940    0.2488    0.6071 H   0  0  0  0  0  0  0  0  0  0  0  0
   11.2910    1.2252    1.3726 H   0  0  0  0  0  0  0  0  0  0  0  0
   13.2573    1.4862    2.8334 H   0  0  0  0  0  0  0  0  0  0  0  0
   14.8405    2.0947    2.2209 H   0  0  0  0  0  0  0  0  0  0  0  0
   13.7389    1.2129    1.0981 H   0  0  0  0  0  0  0  0  0  0  0  0
   11.9595    6.6177    0.7094 H   0  0  0  0  0  0  0  0  0  0  0  0
    9.7071    5.7748    0.1980 H   0  0  0  0  0  0  0  0  0  0  0  0
    8.1713    3.8855    0.0438 H   0  0  0  0  0  0  0  0  0  0  0  0
    0.4151   -3.8787    0.8755 H   0  0  0  0  0  0  0  0  0  0  0  0
    1.4588   -3.8530    2.7452 H   0  0  0  0  0  0  0  0  0  0  0  0
   -1.9343   -4.2758    2.8041 H   0  0  0  0  0  0  0  0  0  0  0  0
   -0.9730   -6.0494    1.8889 H   0  0  0  0  0  0  0  0  0  0  0  0
   -5.8909   -2.4363   -2.4357 H   0  0  0  0  0  0  0  0  0  0  0  0
   -6.4405   -2.0470   -0.7754 H   0  0  0  0  0  0  0  0  0  0  0  0
   -5.4558   -4.8898   -2.7634 H   0  0  0  0  0  0  0  0  0  0  0  0
   -8.5902   -3.5586   -1.8195 H   0  0  0  0  0  0  0  0  0  0  0  0
   -8.4995   -5.1159   -0.9143 H   0  0  0  0  0  0  0  0  0  0  0  0
   -9.2954   -3.3893    0.3391 H   0  0  0  0  0  0  0  0  0  0  0  0
   -6.2142   -4.6245    0.8159 H   0  0  0  0  0  0  0  0  0  0  0  0
   -6.5331   -6.6240   -0.1168 H   0  0  0  0  0  0  0  0  0  0  0  0
  1  2  1  0
  2  3  1  0
  3  4  1  0
  4  5  1  0
  5  6  1  0
  6  7  2  0
  7  8  1  0
  8  9  1  0
  9 10  2  0
 10 11  1  0
 11 12  1  0
 11 13  2  0
 13 14  1  0
 14 15  1  0
 13 16  1  0
 16 17  1  0
 16 18  2  0
 18 19  1  0
 19 20  2  0
  7 21  1  0
 21 22  2  0
 22 23  1  0
 23 24  2  0
 24 25  1  0
 24 26  1  0
 26 27  1  0
 27 28  1  0
 26 29  2  0
  4 30  1  0
 30 31  1  0
 31 32  1  0
 32 33  1  0
 33 34  1  0
 34 35  1  0
 35 36  1  0
 36 37  1  0
 37 38  1  0
 36 39  1  0
 39 40  1  0
 39 41  1  0
 41 42  1  0
 41 43  1  0
 43 44  1  0
 44 45  1  0
 45 46  2  0
 45 47  1  0
 47 48  2  0
 48 49  1  0
 49 50  2  0
 50 51  1  0
 51 52  1  0
 52 53  1  0
 51 54  2  0
 54 55  1  0
 54 56  1  0
 56 57  2  0
 31 58  1  0
 58 59  1  0
 58 60  1  0
 60 61  1  0
  1 62  1  0
 62 63  1  0
 63 64  1  0
 64 65  1  6
 64 66  1  0
 66 67  1  0
 64 68  1  0
 68 69  1  0
 68  1  1  0
 60  3  1  0
 19  6  1  0
 29 21  1  0
 43 34  1  0
 57 49  1  0
 18  9  1  0
  1 70  1  6
  3 71  1  6
  4 72  1  1
 10 73  1  0
 12 74  1  0
 15 75  1  0
 15 76  1  0
 15 77  1  0
 17 78  1  0
 22 79  1  0
 23 80  1  0
 25 81  1  0
 28 82  1  0
 28 83  1  0
 28 84  1  0
 29 85  1  0
 31 86  1  0
 32 87  1  0
 32 88  1  0
 34 89  1  1
 36 90  1  1
 37 91  1  0
 37 92  1  0
 38 93  1  0
 39 94  1  6
 40 95  1  0
 41 96  1  6
 42 97  1  0
 43 98  1  1
 47 99  1  0
 48100  1  0
 50101  1  0
 53102  1  0
 53103  1  0
 53104  1  0
 55105  1  0
 56106  1  0
 57107  1  0
 58108  1  6
 59109  1  0
 60110  1  1
 61111  1  0
 63112  1  0
 63113  1  0
 65114  1  0
 66115  1  0
 66116  1  0
 67117  1  0
 68118  1  1
 69119  1  0
M  END
>  <LIG_ID>  (231) 
230

>  <_smiles>  (231) 
[H][C@@]1(O[C@@]2([H])[C@]([H])(OC3=C(OC4=CC(O)=C(OC)C(O)=C4C3=O)C3=CC=C(O)C(OC)=C3)OC(CO[C@]3([H])O[C@@]([H])(CO)[C@@]([H])(O)[C@]([H])(O)[C@@]3([H])OC(=O)\C=C\C3=CC(OC)=C(O)C=C3)[C@@]([H])(O)[C@]2([H])O)OC[C@](O)(CO)[C@@]1([H])O

>  <_name>  (231) 
Spinacetin 3-O-(2"-feruloylglucosyl)(1->6)-[apiosyl(1->2)]-glucoside

>  <_molecular_weight>  (231) 
978.853

>  <_formula>  (231) 
C44H50O25

>  <_logP>  (231) 
-1.9596999999999984

>  <_molecular_wt_calculated>  (231) 
978.859000000002

>  <_havy_atom_count>  (231) 
69

>  <_hydrogen_acceptors>  (231) 
25

>  <_hydrogen_donors>  (231) 
12

>  <_rotatable_bonds>  (231) 
31

>  <_amide_bonds>  (231) 
0

>  <_ring_count>  (231) 
7

$$$$
Spinacetin 3-O-glucosyl-(1->6)-glucoside
     RDKit          3D

 81 85  0  0  0  0  0  0  0  0999 V2000
    0.6658    0.4622   -3.2004 C   0  0  0  0  0  0  0  0  0  0  0  0
   -0.0884    1.6055   -2.8111 O   0  0  0  0  0  0  0  0  0  0  0  0
   -1.1967    1.5732   -1.9498 C   0  0  0  0  0  0  0  0  0  0  0  0
   -1.6440    0.3826   -1.3434 C   0  0  0  0  0  0  0  0  0  0  0  0
   -2.7597    0.3947   -0.4918 C   0  0  0  0  0  0  0  0  0  0  0  0
   -3.4474    1.5929   -0.2668 C   0  0  0  0  0  0  0  0  0  0  0  0
   -2.9999    2.7783   -0.8531 C   0  0  0  0  0  0  0  0  0  0  0  0
   -1.8758    2.7725   -1.6903 C   0  0  0  0  0  0  0  0  0  0  0  0
   -1.4292    3.9567   -2.2742 O   0  0  0  0  0  0  0  0  0  0  0  0
   -3.2427   -0.8550    0.1164 C   0  0  0  0  0  0  0  0  0  0  0  0
   -2.4493   -1.6059    1.0020 C   0  0  0  0  0  0  0  0  0  0  0  0
   -1.2026   -1.1520    1.4556 O   0  0  0  0  0  0  0  0  0  0  0  0
   -1.0243    0.0971    2.1407 C   0  0  0  0  0  0  0  0  0  0  0  0
   -0.2487    0.9932    1.3649 O   0  0  0  0  0  0  0  0  0  0  0  0
    0.9981    0.4256    0.9744 C   0  0  0  0  0  0  0  0  0  0  0  0
    1.8333    1.5487    0.3423 C   0  0  0  0  0  0  0  0  0  0  0  0
    2.9156    0.9948   -0.3785 O   0  0  0  0  0  0  0  0  0  0  0  0
    3.6912    2.0066   -0.9991 C   0  0  0  0  0  0  0  0  0  0  0  0
    3.8737    1.6390   -2.3625 O   0  0  0  0  0  0  0  0  0  0  0  0
    5.0768    2.1106   -2.9653 C   0  0  0  0  0  0  0  0  0  0  0  0
    4.8429    2.2173   -4.4798 C   0  0  0  0  0  0  0  0  0  0  0  0
    6.0458    2.4758   -5.1550 O   0  0  0  0  0  0  0  0  0  0  0  0
    5.5941    3.4470   -2.3710 C   0  0  0  0  0  0  0  0  0  0  0  0
    4.6445    4.4593   -2.5985 O   0  0  0  0  0  0  0  0  0  0  0  0
    5.8633    3.2976   -0.8521 C   0  0  0  0  0  0  0  0  0  0  0  0
    7.2333    3.0670   -0.6370 O   0  0  0  0  0  0  0  0  0  0  0  0
    5.0189    2.1627   -0.2242 C   0  0  0  0  0  0  0  0  0  0  0  0
    5.7340    0.9510   -0.2477 O   0  0  0  0  0  0  0  0  0  0  0  0
    1.7215   -0.3097    2.1546 C   0  0  0  0  0  0  0  0  0  0  0  0
    3.1229   -0.1731    2.1140 O   0  0  0  0  0  0  0  0  0  0  0  0
    1.1403    0.1393    3.5063 C   0  0  0  0  0  0  0  0  0  0  0  0
    1.7855   -0.5408    4.5526 O   0  0  0  0  0  0  0  0  0  0  0  0
   -0.3844   -0.1166    3.5387 C   0  0  0  0  0  0  0  0  0  0  0  0
   -0.6489   -1.4156    4.0070 O   0  0  0  0  0  0  0  0  0  0  0  0
   -2.9243   -2.8441    1.4469 C   0  0  0  0  0  0  0  0  0  0  0  0
   -2.1558   -3.5658    2.1354 O   0  0  0  0  0  0  0  0  0  0  0  0
   -4.2310   -3.2682    1.0994 C   0  0  0  0  0  0  0  0  0  0  0  0
   -4.9547   -2.4416    0.2062 C   0  0  0  0  0  0  0  0  0  0  0  0
   -4.4448   -1.2956   -0.2302 O   0  0  0  0  0  0  0  0  0  0  0  0
   -6.2110   -2.8271   -0.2517 C   0  0  0  0  0  0  0  0  0  0  0  0
   -6.7674   -4.0421    0.1349 C   0  0  0  0  0  0  0  0  0  0  0  0
   -8.0102   -4.3998   -0.3899 O   0  0  0  0  0  0  0  0  0  0  0  0
   -6.0907   -4.8817    1.0367 C   0  0  0  0  0  0  0  0  0  0  0  0
   -6.7224   -6.0946    1.3759 O   0  0  0  0  0  0  0  0  0  0  0  0
   -6.1820   -7.1456    2.1696 C   0  0  0  0  0  0  0  0  0  0  0  0
   -4.8388   -4.4712    1.5705 C   0  0  0  0  0  0  0  0  0  0  0  0
   -4.2597   -5.2398    2.5831 O   0  0  0  0  0  0  0  0  0  0  0  0
    1.4751    0.7798   -3.8894 H   0  0  0  0  0  0  0  0  0  0  0  0
    0.0124   -0.2641   -3.7280 H   0  0  0  0  0  0  0  0  0  0  0  0
    1.1261   -0.0158   -2.3114 H   0  0  0  0  0  0  0  0  0  0  0  0
   -1.1363   -0.5544   -1.5306 H   0  0  0  0  0  0  0  0  0  0  0  0
   -4.3198    1.6114    0.3750 H   0  0  0  0  0  0  0  0  0  0  0  0
   -3.5299    3.7021   -0.6592 H   0  0  0  0  0  0  0  0  0  0  0  0
   -1.8975    4.8397   -2.1077 H   0  0  0  0  0  0  0  0  0  0  0  0
   -2.0187    0.5685    2.3062 H   0  0  0  0  0  0  0  0  0  0  0  0
    0.8111   -0.3171    0.1664 H   0  0  0  0  0  0  0  0  0  0  0  0
    1.1730    2.1169   -0.3516 H   0  0  0  0  0  0  0  0  0  0  0  0
    2.1900    2.2451    1.1345 H   0  0  0  0  0  0  0  0  0  0  0  0
    3.1794    3.0012   -0.9968 H   0  0  0  0  0  0  0  0  0  0  0  0
    5.8628    1.3364   -2.8178 H   0  0  0  0  0  0  0  0  0  0  0  0
    4.4433    1.2483   -4.8483 H   0  0  0  0  0  0  0  0  0  0  0  0
    4.0751    2.9935   -4.7059 H   0  0  0  0  0  0  0  0  0  0  0  0
    6.1051    3.4594   -5.2743 H   0  0  0  0  0  0  0  0  0  0  0  0
    6.5479    3.7186   -2.8823 H   0  0  0  0  0  0  0  0  0  0  0  0
    5.1195    5.3262   -2.5049 H   0  0  0  0  0  0  0  0  0  0  0  0
    5.5839    4.2575   -0.3557 H   0  0  0  0  0  0  0  0  0  0  0  0
    7.4016    3.2214    0.3295 H   0  0  0  0  0  0  0  0  0  0  0  0
    4.7958    2.4444    0.8323 H   0  0  0  0  0  0  0  0  0  0  0  0
    5.3473    0.3711    0.4589 H   0  0  0  0  0  0  0  0  0  0  0  0
    1.5059   -1.3969    2.0519 H   0  0  0  0  0  0  0  0  0  0  0  0
    3.3594    0.7189    2.4792 H   0  0  0  0  0  0  0  0  0  0  0  0
    1.3215    1.2358    3.6112 H   0  0  0  0  0  0  0  0  0  0  0  0
    1.5505   -0.0616    5.3899 H   0  0  0  0  0  0  0  0  0  0  0  0
   -0.8222    0.6216    4.2516 H   0  0  0  0  0  0  0  0  0  0  0  0
   -1.6109   -1.4395    4.2524 H   0  0  0  0  0  0  0  0  0  0  0  0
   -6.7499   -2.1880   -0.9408 H   0  0  0  0  0  0  0  0  0  0  0  0
   -8.4731   -5.2681   -0.1500 H   0  0  0  0  0  0  0  0  0  0  0  0
   -6.0769   -6.8163    3.2243 H   0  0  0  0  0  0  0  0  0  0  0  0
   -6.8819   -8.0057    2.1481 H   0  0  0  0  0  0  0  0  0  0  0  0
   -5.2073   -7.4800    1.7557 H   0  0  0  0  0  0  0  0  0  0  0  0
   -3.6292   -4.8760    3.2828 H   0  0  0  0  0  0  0  0  0  0  0  0
  1  2  1  0
  2  3  1  0
  3  4  2  0
  4  5  1  0
  5  6  2  0
  6  7  1  0
  7  8  2  0
  8  9  1  0
  5 10  1  0
 10 11  2  0
 11 12  1  0
 12 13  1  0
 13 14  1  0
 14 15  1  0
 15 16  1  0
 16 17  1  0
 17 18  1  0
 18 19  1  0
 19 20  1  0
 20 21  1  0
 21 22  1  0
 20 23  1  0
 23 24  1  0
 23 25  1  0
 25 26  1  0
 25 27  1  0
 27 28  1  0
 15 29  1  0
 29 30  1  0
 29 31  1  0
 31 32  1  0
 31 33  1  0
 33 34  1  0
 11 35  1  0
 35 36  2  0
 35 37  1  0
 37 38  2  0
 38 39  1  0
 38 40  1  0
 40 41  2  0
 41 42  1  0
 41 43  1  0
 43 44  1  0
 44 45  1  0
 43 46  2  0
 46 47  1  0
  8  3  1  0
 39 10  1  0
 33 13  1  0
 46 37  1  0
 27 18  1  0
  1 48  1  0
  1 49  1  0
  1 50  1  0
  4 51  1  0
  6 52  1  0
  7 53  1  0
  9 54  1  0
 13 55  1  0
 15 56  1  0
 16 57  1  0
 16 58  1  0
 18 59  1  0
 20 60  1  0
 21 61  1  0
 21 62  1  0
 22 63  1  0
 23 64  1  0
 24 65  1  0
 25 66  1  0
 26 67  1  0
 27 68  1  0
 28 69  1  0
 29 70  1  0
 30 71  1  0
 31 72  1  0
 32 73  1  0
 33 74  1  0
 34 75  1  0
 40 76  1  0
 42 77  1  0
 45 78  1  0
 45 79  1  0
 45 80  1  0
 47 81  1  0
M  END
>  <LIG_ID>  (232) 
231

>  <_smiles>  (232) 
COC1=CC(=CC=C1O)C1=C(OC2OC(COC3OC(CO)C(O)C(O)C3O)C(O)C(O)C2O)C(=O)C2=C(O1)C=C(O)C(OC)=C2O

>  <_name>  (232) 
Spinacetin 3-O-glucosyl-(1->6)-glucoside

>  <_molecular_weight>  (232) 
670.57

>  <_formula>  (232) 
C29H34O18

>  <_logP>  (232) 
-2.4031

>  <_molecular_wt_calculated>  (232) 
670.5730000000016

>  <_havy_atom_count>  (232) 
47

>  <_hydrogen_acceptors>  (232) 
18

>  <_hydrogen_donors>  (232) 
10

>  <_rotatable_bonds>  (232) 
21

>  <_amide_bonds>  (232) 
0

>  <_ring_count>  (232) 
5

$$$$
Jaceidin 4'-O-glucuronide
     RDKit          3D

 62 65  0  0  0  0  0  0  0  0999 V2000
   -4.3784   -0.7346   -0.4992 C   0  0  2  0  0  0  0  0  0  0  0  0
   -3.3601   -1.3434    0.2935 O   0  0  0  0  0  0  0  0  0  0  0  0
   -1.9909   -1.0387    0.2197 C   0  0  0  0  0  0  0  0  0  0  0  0
   -1.4800   -0.0965   -0.6928 C   0  0  0  0  0  0  0  0  0  0  0  0
   -0.1117    0.1748   -0.7369 C   0  0  0  0  0  0  0  0  0  0  0  0
    0.7744   -0.4973    0.1152 C   0  0  0  0  0  0  0  0  0  0  0  0
    0.2644   -1.4212    1.0427 C   0  0  0  0  0  0  0  0  0  0  0  0
   -1.1150   -1.7023    1.0921 C   0  0  0  0  0  0  0  0  0  0  0  0
   -1.6540   -2.6315    1.9965 O   0  0  0  0  0  0  0  0  0  0  0  0
   -0.8887   -3.3879    2.9291 C   0  0  0  0  0  0  0  0  0  0  0  0
    2.2194   -0.1772    0.0634 C   0  0  0  0  0  0  0  0  0  0  0  0
    3.2068   -1.1802    0.0977 C   0  0  0  0  0  0  0  0  0  0  0  0
    2.7883   -2.5264    0.1174 O   0  0  0  0  0  0  0  0  0  0  0  0
    3.6227   -3.6732    0.2404 C   0  0  0  0  0  0  0  0  0  0  0  0
    4.5643   -0.7826    0.0710 C   0  0  0  0  0  0  0  0  0  0  0  0
    5.4670   -1.6561    0.0051 O   0  0  0  0  0  0  0  0  0  0  0  0
    4.8968    0.5952    0.0531 C   0  0  0  0  0  0  0  0  0  0  0  0
    3.8281    1.5124   -0.0673 C   0  0  0  0  0  0  0  0  0  0  0  0
    2.5691    1.0978   -0.0458 O   0  0  0  0  0  0  0  0  0  0  0  0
    4.0772    2.8738   -0.2186 C   0  0  0  0  0  0  0  0  0  0  0  0
    5.3849    3.3539   -0.2716 C   0  0  0  0  0  0  0  0  0  0  0  0
    5.6201    4.7145   -0.4671 O   0  0  0  0  0  0  0  0  0  0  0  0
    6.4696    2.4818   -0.1213 C   0  0  0  0  0  0  0  0  0  0  0  0
    7.7532    3.0586   -0.1825 O   0  0  0  0  0  0  0  0  0  0  0  0
    8.9977    2.3679   -0.1620 C   0  0  0  0  0  0  0  0  0  0  0  0
    6.2328    1.0986    0.1002 C   0  0  0  0  0  0  0  0  0  0  0  0
    7.3177    0.2751    0.4103 O   0  0  0  0  0  0  0  0  0  0  0  0
   -4.4667    0.6386   -0.1572 O   0  0  0  0  0  0  0  0  0  0  0  0
   -5.3834    1.3054   -1.0074 C   0  0  2  0  0  0  0  0  0  0  0  0
   -5.3253    2.7740   -0.7077 C   0  0  0  0  0  0  0  0  0  0  0  0
   -5.3290    3.2152    0.6125 O   0  0  0  0  0  0  0  0  0  0  0  0
   -5.3042    3.6113   -1.6494 O   0  0  0  0  0  0  0  0  0  0  0  0
   -6.8146    0.7758   -0.7782 C   0  0  1  0  0  0  0  0  0  0  0  0
   -7.6991    1.4087   -1.6677 O   0  0  0  0  0  0  0  0  0  0  0  0
   -6.8403   -0.7490   -1.0110 C   0  0  2  0  0  0  0  0  0  0  0  0
   -8.0950   -1.2898   -0.6776 O   0  0  0  0  0  0  0  0  0  0  0  0
   -5.7180   -1.4389   -0.2142 C   0  0  1  0  0  0  0  0  0  0  0  0
   -5.6452   -2.7892   -0.5937 O   0  0  0  0  0  0  0  0  0  0  0  0
   -4.1140   -0.8681   -1.5749 H   0  0  0  0  0  0  0  0  0  0  0  0
   -2.1306    0.4329   -1.3748 H   0  0  0  0  0  0  0  0  0  0  0  0
    0.2586    0.9030   -1.4485 H   0  0  0  0  0  0  0  0  0  0  0  0
    0.9400   -1.9009    1.7373 H   0  0  0  0  0  0  0  0  0  0  0  0
   -1.5688   -4.0493    3.5038 H   0  0  0  0  0  0  0  0  0  0  0  0
   -0.1481   -4.0186    2.3932 H   0  0  0  0  0  0  0  0  0  0  0  0
   -0.3711   -2.7083    3.6386 H   0  0  0  0  0  0  0  0  0  0  0  0
    4.2711   -3.7750   -0.6548 H   0  0  0  0  0  0  0  0  0  0  0  0
    2.9821   -4.5762    0.3076 H   0  0  0  0  0  0  0  0  0  0  0  0
    4.2323   -3.6081    1.1663 H   0  0  0  0  0  0  0  0  0  0  0  0
    3.2463    3.5616   -0.3194 H   0  0  0  0  0  0  0  0  0  0  0  0
    4.8597    5.3754   -0.5772 H   0  0  0  0  0  0  0  0  0  0  0  0
    9.0306    1.6076   -0.9707 H   0  0  0  0  0  0  0  0  0  0  0  0
    9.1624    1.9014    0.8316 H   0  0  0  0  0  0  0  0  0  0  0  0
    9.8146    3.0974   -0.3374 H   0  0  0  0  0  0  0  0  0  0  0  0
    7.2462   -0.5735    0.9536 H   0  0  0  0  0  0  0  0  0  0  0  0
   -5.0950    1.1624   -2.0764 H   0  0  0  0  0  0  0  0  0  0  0  0
   -5.3026    4.2042    0.8297 H   0  0  0  0  0  0  0  0  0  0  0  0
   -7.1083    0.9950    0.2768 H   0  0  0  0  0  0  0  0  0  0  0  0
   -8.6114    1.2991   -1.2918 H   0  0  0  0  0  0  0  0  0  0  0  0
   -6.6671   -0.9387   -2.0944 H   0  0  0  0  0  0  0  0  0  0  0  0
   -8.2536   -1.1130    0.2867 H   0  0  0  0  0  0  0  0  0  0  0  0
   -5.9447   -1.3570    0.8758 H   0  0  0  0  0  0  0  0  0  0  0  0
   -5.1838   -3.2710    0.1416 H   0  0  0  0  0  0  0  0  0  0  0  0
  1  2  1  0
  2  3  1  0
  3  4  2  0
  4  5  1  0
  5  6  2  0
  6  7  1  0
  7  8  2  0
  8  9  1  0
  9 10  1  0
  6 11  1  0
 11 12  2  0
 12 13  1  0
 13 14  1  0
 12 15  1  0
 15 16  2  0
 15 17  1  0
 17 18  2  0
 18 19  1  0
 18 20  1  0
 20 21  2  0
 21 22  1  0
 21 23  1  0
 23 24  1  0
 24 25  1  0
 23 26  2  0
 26 27  1  0
  1 28  1  0
 28 29  1  0
 29 30  1  0
 30 31  1  0
 30 32  2  0
 29 33  1  0
 33 34  1  0
 33 35  1  0
 35 36  1  0
 35 37  1  0
 37 38  1  0
 37  1  1  0
  8  3  1  0
 19 11  1  0
 26 17  1  0
  1 39  1  6
  4 40  1  0
  5 41  1  0
  7 42  1  0
 10 43  1  0
 10 44  1  0
 10 45  1  0
 14 46  1  0
 14 47  1  0
 14 48  1  0
 20 49  1  0
 22 50  1  0
 25 51  1  0
 25 52  1  0
 25 53  1  0
 27 54  1  0
 29 55  1  6
 31 56  1  0
 33 57  1  1
 34 58  1  0
 35 59  1  6
 36 60  1  0
 37 61  1  1
 38 62  1  0
M  END
>  <LIG_ID>  (233) 
232

>  <_smiles>  (233) 
[H][C@@]1(OC2=CC=C(C=C2OC)C2=C(OC)C(=O)C3=C(O2)C=C(O)C(OC)=C3O)O[C@]([H])(C(O)=O)[C@@]([H])(O)[C@]([H])(O)[C@@]1([H])O

>  <_name>  (233) 
Jaceidin 4'-O-glucuronide

>  <_molecular_weight>  (233) 
536.439

>  <_formula>  (233) 
C24H24O14

>  <_logP>  (233) 
0.16799999999999982

>  <_molecular_wt_calculated>  (233) 
536.4420000000013

>  <_havy_atom_count>  (233) 
38

>  <_hydrogen_acceptors>  (233) 
14

>  <_hydrogen_donors>  (233) 
6

>  <_rotatable_bonds>  (233) 
15

>  <_amide_bonds>  (233) 
0

>  <_ring_count>  (233) 
4

$$$$
5,3',4'-Trihydroxy-3-methoxy-6:7-methylenedioxyflavone 4'-O-glucuronide
     RDKit          3D

 57 61  0  0  0  0  0  0  0  0999 V2000
   -4.1000    0.3017   -0.7040 C   0  0  2  0  0  0  0  0  0  0  0  0
   -3.1216   -0.6998   -0.9786 O   0  0  0  0  0  0  0  0  0  0  0  0
   -1.7380   -0.6204   -0.7334 C   0  0  0  0  0  0  0  0  0  0  0  0
   -0.9862   -1.7736   -0.9877 C   0  0  0  0  0  0  0  0  0  0  0  0
    0.3917   -1.7975   -0.7679 C   0  0  0  0  0  0  0  0  0  0  0  0
    1.0503   -0.6623   -0.2734 C   0  0  0  0  0  0  0  0  0  0  0  0
    0.3116    0.5065   -0.0417 C   0  0  0  0  0  0  0  0  0  0  0  0
   -1.0745    0.5398   -0.2615 C   0  0  0  0  0  0  0  0  0  0  0  0
   -1.7669    1.7234   -0.0150 O   0  0  0  0  0  0  0  0  0  0  0  0
    2.5151   -0.6562   -0.0559 C   0  0  0  0  0  0  0  0  0  0  0  0
    3.1760   -1.7175    0.5932 C   0  0  0  0  0  0  0  0  0  0  0  0
    2.3935   -2.7773    1.0960 O   0  0  0  0  0  0  0  0  0  0  0  0
    2.8688   -3.9569    1.7358 C   0  0  0  0  0  0  0  0  0  0  0  0
    4.5822   -1.6465    0.7376 C   0  0  0  0  0  0  0  0  0  0  0  0
    5.1896   -2.5515    1.3634 O   0  0  0  0  0  0  0  0  0  0  0  0
    5.2901   -0.5368    0.2169 C   0  0  0  0  0  0  0  0  0  0  0  0
    6.7172   -0.3860    0.2725 C   0  0  0  0  0  0  0  0  0  0  0  0
    7.6087   -1.3660    0.7178 O   0  0  0  0  0  0  0  0  0  0  0  0
    7.2581    0.8163   -0.1780 C   0  0  0  0  0  0  0  0  0  0  0  0
    6.4991    1.8079   -0.7006 C   0  0  0  0  0  0  0  0  0  0  0  0
    7.3076    2.8639   -1.0750 O   0  0  0  0  0  0  0  0  0  0  0  0
    8.6633    2.5129   -0.7693 C   0  0  0  0  0  0  0  0  0  0  0  0
    8.5868    1.1981   -0.2027 O   0  0  0  0  0  0  0  0  0  0  0  0
    5.1238    1.6943   -0.8227 C   0  0  0  0  0  0  0  0  0  0  0  0
    4.5126    0.5155   -0.3619 C   0  0  0  0  0  0  0  0  0  0  0  0
    3.1975    0.4022   -0.4732 O   0  0  0  0  0  0  0  0  0  0  0  0
   -4.1397    0.5271    0.6970 O   0  0  0  0  0  0  0  0  0  0  0  0
   -5.2503    1.2961    1.1589 C   0  0  2  0  0  0  0  0  0  0  0  0
   -6.0644    0.4639    2.1102 C   0  0  0  0  0  0  0  0  0  0  0  0
   -6.0256   -0.9258    2.0400 O   0  0  0  0  0  0  0  0  0  0  0  0
   -6.8028    1.0261    2.9631 O   0  0  0  0  0  0  0  0  0  0  0  0
   -6.1511    1.9364    0.0643 C   0  0  1  0  0  0  0  0  0  0  0  0
   -5.4700    3.0382   -0.4841 O   0  0  0  0  0  0  0  0  0  0  0  0
   -6.5188    0.9296   -1.0596 C   0  0  2  0  0  0  0  0  0  0  0  0
   -7.7953    0.3761   -0.8522 O   0  0  0  0  0  0  0  0  0  0  0  0
   -5.4623   -0.1837   -1.2283 C   0  0  1  0  0  0  0  0  0  0  0  0
   -5.3661   -0.5281   -2.5879 O   0  0  0  0  0  0  0  0  0  0  0  0
   -3.8163    1.2305   -1.2461 H   0  0  0  0  0  0  0  0  0  0  0  0
   -1.4771   -2.6620   -1.3651 H   0  0  0  0  0  0  0  0  0  0  0  0
    0.9439   -2.6981   -1.0051 H   0  0  0  0  0  0  0  0  0  0  0  0
    0.8132    1.3959    0.3211 H   0  0  0  0  0  0  0  0  0  0  0  0
   -1.2995    2.5571    0.3219 H   0  0  0  0  0  0  0  0  0  0  0  0
    3.3709   -3.7003    2.6920 H   0  0  0  0  0  0  0  0  0  0  0  0
    2.0043   -4.6132    1.9645 H   0  0  0  0  0  0  0  0  0  0  0  0
    3.5568   -4.5097    1.0619 H   0  0  0  0  0  0  0  0  0  0  0  0
    7.3857   -2.3443    0.8189 H   0  0  0  0  0  0  0  0  0  0  0  0
    9.2734    2.4958   -1.6967 H   0  0  0  0  0  0  0  0  0  0  0  0
    9.0861    3.2249   -0.0299 H   0  0  0  0  0  0  0  0  0  0  0  0
    4.5400    2.4964   -1.2559 H   0  0  0  0  0  0  0  0  0  0  0  0
   -4.8300    2.1314    1.7613 H   0  0  0  0  0  0  0  0  0  0  0  0
   -6.5801   -1.4938    2.6692 H   0  0  0  0  0  0  0  0  0  0  0  0
   -7.0871    2.3099    0.5459 H   0  0  0  0  0  0  0  0  0  0  0  0
   -6.1514    3.6134   -0.9213 H   0  0  0  0  0  0  0  0  0  0  0  0
   -6.5753    1.5003   -2.0137 H   0  0  0  0  0  0  0  0  0  0  0  0
   -7.7863   -0.0900    0.0232 H   0  0  0  0  0  0  0  0  0  0  0  0
   -5.7654   -1.0778   -0.6336 H   0  0  0  0  0  0  0  0  0  0  0  0
   -5.0157   -1.4562   -2.6302 H   0  0  0  0  0  0  0  0  0  0  0  0
  1  2  1  0
  2  3  1  0
  3  4  2  0
  4  5  1  0
  5  6  2  0
  6  7  1  0
  7  8  2  0
  8  9  1  0
  6 10  1  0
 10 11  2  0
 11 12  1  0
 12 13  1  0
 11 14  1  0
 14 15  2  0
 14 16  1  0
 16 17  2  0
 17 18  1  0
 17 19  1  0
 19 20  2  0
 20 21  1  0
 21 22  1  0
 22 23  1  0
 20 24  1  0
 24 25  2  0
 25 26  1  0
  1 27  1  0
 27 28  1  0
 28 29  1  0
 29 30  1  0
 29 31  2  0
 28 32  1  0
 32 33  1  0
 32 34  1  0
 34 35  1  0
 34 36  1  0
 36 37  1  0
 36  1  1  0
  8  3  1  0
 26 10  1  0
 25 16  1  0
 23 19  1  0
  1 38  1  6
  4 39  1  0
  5 40  1  0
  7 41  1  0
  9 42  1  0
 13 43  1  0
 13 44  1  0
 13 45  1  0
 18 46  1  0
 22 47  1  0
 22 48  1  0
 24 49  1  0
 28 50  1  1
 30 51  1  0
 32 52  1  1
 33 53  1  0
 34 54  1  6
 35 55  1  0
 36 56  1  1
 37 57  1  0
M  END
>  <LIG_ID>  (234) 
233

>  <_smiles>  (234) 
[H][C@@]1(OC2=CC=C(C=C2O)C2=C(OC)C(=O)C3=C(O)C4=C(OCO4)C=C3O2)O[C@]([H])(C(O)=O)[C@@]([H])(O)[C@]([H])(O)[C@@]1([H])O

>  <_name>  (234) 
5,3',4'-Trihydroxy-3-methoxy-6:7-methylenedioxyflavone 4'-O-glucuronide

>  <_molecular_weight>  (234) 
520.396

>  <_formula>  (234) 
C23H20O14

>  <_logP>  (234) 
-0.12050000000000055

>  <_molecular_wt_calculated>  (234) 
520.3990000000005

>  <_havy_atom_count>  (234) 
37

>  <_hydrogen_acceptors>  (234) 
14

>  <_hydrogen_donors>  (234) 
6

>  <_rotatable_bonds>  (234) 
11

>  <_amide_bonds>  (234) 
0

>  <_ring_count>  (234) 
5

$$$$
5,4'-Dihydroxy-3,3'-dimethoxy-6:7-methylenedioxyflavone 4'-O-glucuronide
     RDKit          3D

 60 64  0  0  0  0  0  0  0  0999 V2000
   -4.1835   -0.0311   -0.5706 C   0  0  2  0  0  0  0  0  0  0  0  0
   -3.1147   -0.9214   -0.8921 O   0  0  0  0  0  0  0  0  0  0  0  0
   -1.7484   -0.6428   -0.7207 C   0  0  0  0  0  0  0  0  0  0  0  0
   -1.2880    0.6039   -0.2566 C   0  0  0  0  0  0  0  0  0  0  0  0
    0.0784    0.8371   -0.0944 C   0  0  0  0  0  0  0  0  0  0  0  0
    1.0103   -0.1695   -0.3792 C   0  0  0  0  0  0  0  0  0  0  0  0
    0.5554   -1.4052   -0.8689 C   0  0  0  0  0  0  0  0  0  0  0  0
   -0.8222   -1.6496   -1.0326 C   0  0  0  0  0  0  0  0  0  0  0  0
   -1.3096   -2.8790   -1.5043 O   0  0  0  0  0  0  0  0  0  0  0  0
   -0.4927   -3.9944   -1.8453 C   0  0  0  0  0  0  0  0  0  0  0  0
    2.4559    0.1086   -0.2177 C   0  0  0  0  0  0  0  0  0  0  0  0
    3.3288   -0.8174    0.3866 C   0  0  0  0  0  0  0  0  0  0  0  0
    2.7786   -2.0100    0.8997 O   0  0  0  0  0  0  0  0  0  0  0  0
    3.4927   -3.0946    1.4831 C   0  0  0  0  0  0  0  0  0  0  0  0
    4.7018   -0.4866    0.4786 C   0  0  0  0  0  0  0  0  0  0  0  0
    5.4917   -1.2682    1.0658 O   0  0  0  0  0  0  0  0  0  0  0  0
    5.1689    0.7409   -0.0494 C   0  0  0  0  0  0  0  0  0  0  0  0
    6.5441    1.1546   -0.0460 C   0  0  0  0  0  0  0  0  0  0  0  0
    7.6197    0.3534    0.3470 O   0  0  0  0  0  0  0  0  0  0  0  0
    6.8330    2.4414   -0.4954 C   0  0  0  0  0  0  0  0  0  0  0  0
    5.8820    3.2794   -0.9706 C   0  0  0  0  0  0  0  0  0  0  0  0
    6.4639    4.4714   -1.3569 O   0  0  0  0  0  0  0  0  0  0  0  0
    7.8726    4.3763   -1.1099 C   0  0  0  0  0  0  0  0  0  0  0  0
    8.0654    3.0646   -0.5643 O   0  0  0  0  0  0  0  0  0  0  0  0
    4.5480    2.9124   -1.0418 C   0  0  0  0  0  0  0  0  0  0  0  0
    4.1861    1.6356   -0.5790 C   0  0  0  0  0  0  0  0  0  0  0  0
    2.9116    1.2801   -0.6417 O   0  0  0  0  0  0  0  0  0  0  0  0
   -4.1627    0.2151    0.8293 O   0  0  0  0  0  0  0  0  0  0  0  0
   -5.3446    0.8709    1.2406 C   0  0  2  0  0  0  0  0  0  0  0  0
   -5.1363    1.4258    2.6183 C   0  0  0  0  0  0  0  0  0  0  0  0
   -4.4726    0.6694    3.5799 O   0  0  0  0  0  0  0  0  0  0  0  0
   -5.5938    2.5612    2.9184 O   0  0  0  0  0  0  0  0  0  0  0  0
   -6.5345   -0.1228    1.2327 C   0  0  1  0  0  0  0  0  0  0  0  0
   -7.7335    0.5801    1.0248 O   0  0  0  0  0  0  0  0  0  0  0  0
   -6.3670   -1.1904    0.1191 C   0  0  2  0  0  0  0  0  0  0  0  0
   -5.8180   -2.3819    0.6315 O   0  0  0  0  0  0  0  0  0  0  0  0
   -5.5219   -0.6654   -1.0598 C   0  0  1  0  0  0  0  0  0  0  0  0
   -6.2746    0.2890   -1.7656 O   0  0  0  0  0  0  0  0  0  0  0  0
   -4.0096    0.9247   -1.1162 H   0  0  0  0  0  0  0  0  0  0  0  0
   -1.9763    1.4026   -0.0186 H   0  0  0  0  0  0  0  0  0  0  0  0
    0.4091    1.8035    0.2667 H   0  0  0  0  0  0  0  0  0  0  0  0
    1.2762   -2.1638   -1.1409 H   0  0  0  0  0  0  0  0  0  0  0  0
    0.0927   -4.3238   -0.9608 H   0  0  0  0  0  0  0  0  0  0  0  0
   -1.1417   -4.8318   -2.1737 H   0  0  0  0  0  0  0  0  0  0  0  0
    0.1904   -3.7267   -2.6789 H   0  0  0  0  0  0  0  0  0  0  0  0
    4.2389   -3.4947    0.7647 H   0  0  0  0  0  0  0  0  0  0  0  0
    2.7757   -3.9048    1.7274 H   0  0  0  0  0  0  0  0  0  0  0  0
    3.9827   -2.7704    2.4249 H   0  0  0  0  0  0  0  0  0  0  0  0
    7.5866   -0.6504    0.4387 H   0  0  0  0  0  0  0  0  0  0  0  0
    8.4366    4.4829   -2.0602 H   0  0  0  0  0  0  0  0  0  0  0  0
    8.1857    5.1470   -0.3747 H   0  0  0  0  0  0  0  0  0  0  0  0
    3.8079    3.5960   -1.4379 H   0  0  0  0  0  0  0  0  0  0  0  0
   -5.5635    1.7308    0.5615 H   0  0  0  0  0  0  0  0  0  0  0  0
   -4.3376    1.0252    4.5187 H   0  0  0  0  0  0  0  0  0  0  0  0
   -6.5948   -0.6622    2.2089 H   0  0  0  0  0  0  0  0  0  0  0  0
   -7.9520    1.0357    1.8795 H   0  0  0  0  0  0  0  0  0  0  0  0
   -7.3738   -1.4548   -0.2742 H   0  0  0  0  0  0  0  0  0  0  0  0
   -4.9438   -2.1680    1.0483 H   0  0  0  0  0  0  0  0  0  0  0  0
   -5.3110   -1.5266   -1.7380 H   0  0  0  0  0  0  0  0  0  0  0  0
   -5.8488    0.3884   -2.6572 H   0  0  0  0  0  0  0  0  0  0  0  0
  1  2  1  0
  2  3  1  0
  3  4  2  0
  4  5  1  0
  5  6  2  0
  6  7  1  0
  7  8  2  0
  8  9  1  0
  9 10  1  0
  6 11  1  0
 11 12  2  0
 12 13  1  0
 13 14  1  0
 12 15  1  0
 15 16  2  0
 15 17  1  0
 17 18  2  0
 18 19  1  0
 18 20  1  0
 20 21  2  0
 21 22  1  0
 22 23  1  0
 23 24  1  0
 21 25  1  0
 25 26  2  0
 26 27  1  0
  1 28  1  0
 28 29  1  0
 29 30  1  0
 30 31  1  0
 30 32  2  0
 29 33  1  0
 33 34  1  0
 33 35  1  0
 35 36  1  0
 35 37  1  0
 37 38  1  0
 37  1  1  0
  8  3  1  0
 27 11  1  0
 26 17  1  0
 24 20  1  0
  1 39  1  6
  4 40  1  0
  5 41  1  0
  7 42  1  0
 10 43  1  0
 10 44  1  0
 10 45  1  0
 14 46  1  0
 14 47  1  0
 14 48  1  0
 19 49  1  0
 23 50  1  0
 23 51  1  0
 25 52  1  0
 29 53  1  6
 31 54  1  0
 33 55  1  1
 34 56  1  0
 35 57  1  6
 36 58  1  0
 37 59  1  6
 38 60  1  0
M  END
>  <LIG_ID>  (235) 
234

>  <_smiles>  (235) 
[H][C@@]1(OC2=CC=C(C=C2OC)C2=C(OC)C(=O)C3=C(O)C4=C(OCO4)C=C3O2)O[C@]([H])(C(O)=O)[C@@]([H])(O)[C@]([H])(O)[C@@]1([H])O

>  <_name>  (235) 
5,4'-Dihydroxy-3,3'-dimethoxy-6:7-methylenedioxyflavone 4'-O-glucuronide

>  <_molecular_weight>  (235) 
534.423

>  <_formula>  (235) 
C24H22O14

>  <_logP>  (235) 
0.18249999999999955

>  <_molecular_wt_calculated>  (235) 
534.4260000000012

>  <_havy_atom_count>  (235) 
38

>  <_hydrogen_acceptors>  (235) 
14

>  <_hydrogen_donors>  (235) 
5

>  <_rotatable_bonds>  (235) 
12

>  <_amide_bonds>  (235) 
0

>  <_ring_count>  (235) 
5

$$$$
Kaempferol 3-O-xylosyl-glucoside
     RDKit          3D

 69 73  0  0  0  0  0  0  0  0999 V2000
    5.3509    0.1788    2.5333 C   0  0  1  0  0  0  0  0  0  0  0  0
    5.9606    1.5721    2.7441 C   0  0  0  0  0  0  0  0  0  0  0  0
    5.7159    2.3896    1.6321 O   0  0  0  0  0  0  0  0  0  0  0  0
    3.9955    0.2901    2.1536 O   0  0  0  0  0  0  0  0  0  0  0  0
    3.7561   -0.6146    1.0938 C   0  0  1  0  0  0  0  0  0  0  0  0
    3.5531    0.1131   -0.1041 O   0  0  0  0  0  0  0  0  0  0  0  0
    2.2463    0.6573   -0.1578 C   0  0  0  0  0  0  0  0  0  0  0  0
    1.3015   -0.2683   -0.9393 C   0  0  1  0  0  0  0  0  0  0  0  0
    0.0268    0.3413   -1.0099 O   0  0  0  0  0  0  0  0  0  0  0  0
   -0.9581   -0.6011   -1.4133 C   0  0  1  0  0  0  0  0  0  0  0  0
   -2.1619    0.1060   -1.7067 O   0  0  0  0  0  0  0  0  0  0  0  0
   -2.9086    0.7505   -0.7147 C   0  0  0  0  0  0  0  0  0  0  0  0
   -3.6394    0.0278    0.2518 C   0  0  0  0  0  0  0  0  0  0  0  0
   -4.2731    0.6814    1.2214 O   0  0  0  0  0  0  0  0  0  0  0  0
   -4.2899    2.0063    1.3181 C   0  0  0  0  0  0  0  0  0  0  0  0
   -4.9861    2.6033    2.3731 C   0  0  0  0  0  0  0  0  0  0  0  0
   -5.0293    3.9932    2.4941 C   0  0  0  0  0  0  0  0  0  0  0  0
   -5.7292    4.5686    3.5525 O   0  0  0  0  0  0  0  0  0  0  0  0
   -4.3721    4.7954    1.5542 C   0  0  0  0  0  0  0  0  0  0  0  0
   -3.6663    4.2158    0.4894 C   0  0  0  0  0  0  0  0  0  0  0  0
   -3.0192    5.0409   -0.4313 O   0  0  0  0  0  0  0  0  0  0  0  0
   -3.6190    2.8068    0.3636 C   0  0  0  0  0  0  0  0  0  0  0  0
   -2.9213    2.1483   -0.6688 C   0  0  0  0  0  0  0  0  0  0  0  0
   -2.2910    2.7971   -1.5477 O   0  0  0  0  0  0  0  0  0  0  0  0
   -3.7346   -1.4492    0.2297 C   0  0  0  0  0  0  0  0  0  0  0  0
   -3.6563   -2.1669    1.4344 C   0  0  0  0  0  0  0  0  0  0  0  0
   -3.7419   -3.5624    1.4334 C   0  0  0  0  0  0  0  0  0  0  0  0
   -3.9203   -4.2559    0.2325 C   0  0  0  0  0  0  0  0  0  0  0  0
   -3.9997   -5.6465    0.2462 O   0  0  0  0  0  0  0  0  0  0  0  0
   -4.0212   -3.5462   -0.9710 C   0  0  0  0  0  0  0  0  0  0  0  0
   -3.9378   -2.1509   -0.9728 C   0  0  0  0  0  0  0  0  0  0  0  0
   -0.5389   -1.4171   -2.6694 C   0  0  2  0  0  0  0  0  0  0  0  0
   -0.2118   -2.7292   -2.2847 O   0  0  0  0  0  0  0  0  0  0  0  0
    0.6696   -0.7591   -3.3683 C   0  0  1  0  0  0  0  0  0  0  0  0
    0.2887    0.4865   -3.8978 O   0  0  0  0  0  0  0  0  0  0  0  0
    1.8348   -0.5519   -2.3698 C   0  0  2  0  0  0  0  0  0  0  0  0
    2.6487   -1.6974   -2.3343 O   0  0  0  0  0  0  0  0  0  0  0  0
    4.9785   -1.5156    0.9255 C   0  0  2  0  0  0  0  0  0  0  0  0
    4.8223   -2.7360    1.6126 O   0  0  0  0  0  0  0  0  0  0  0  0
    6.0968   -0.6915    1.5166 C   0  0  1  0  0  0  0  0  0  0  0  0
    6.6991    0.0889    0.5140 O   0  0  0  0  0  0  0  0  0  0  0  0
    5.3820   -0.3449    3.5153 H   0  0  0  0  0  0  0  0  0  0  0  0
    7.0561    1.4797    2.9197 H   0  0  0  0  0  0  0  0  0  0  0  0
    5.4989    2.0325    3.6461 H   0  0  0  0  0  0  0  0  0  0  0  0
    6.1448    3.2618    1.8323 H   0  0  0  0  0  0  0  0  0  0  0  0
    2.8726   -1.2494    1.3396 H   0  0  0  0  0  0  0  0  0  0  0  0
    2.3032    1.6363   -0.6802 H   0  0  0  0  0  0  0  0  0  0  0  0
    1.8177    0.8743    0.8496 H   0  0  0  0  0  0  0  0  0  0  0  0
    1.2332   -1.2247   -0.3676 H   0  0  0  0  0  0  0  0  0  0  0  0
   -1.1539   -1.3002   -0.5693 H   0  0  0  0  0  0  0  0  0  0  0  0
   -5.4974    1.9846    3.1005 H   0  0  0  0  0  0  0  0  0  0  0  0
   -5.7806    5.5738    3.6695 H   0  0  0  0  0  0  0  0  0  0  0  0
   -4.4087    5.8732    1.6517 H   0  0  0  0  0  0  0  0  0  0  0  0
   -3.0450    6.0509   -0.3523 H   0  0  0  0  0  0  0  0  0  0  0  0
   -3.5121   -1.6477    2.3741 H   0  0  0  0  0  0  0  0  0  0  0  0
   -3.6684   -4.1056    2.3669 H   0  0  0  0  0  0  0  0  0  0  0  0
   -4.1294   -6.1777   -0.6070 H   0  0  0  0  0  0  0  0  0  0  0  0
   -4.1701   -4.0740   -1.9044 H   0  0  0  0  0  0  0  0  0  0  0  0
   -4.0442   -1.6219   -1.9111 H   0  0  0  0  0  0  0  0  0  0  0  0
   -1.3950   -1.4573   -3.3844 H   0  0  0  0  0  0  0  0  0  0  0  0
   -0.2131   -3.2812   -3.1101 H   0  0  0  0  0  0  0  0  0  0  0  0
    1.0163   -1.4135   -4.2028 H   0  0  0  0  0  0  0  0  0  0  0  0
   -0.2572    0.3018   -4.7064 H   0  0  0  0  0  0  0  0  0  0  0  0
    2.4417    0.3175   -2.7210 H   0  0  0  0  0  0  0  0  0  0  0  0
    3.2170   -1.6741   -3.1482 H   0  0  0  0  0  0  0  0  0  0  0  0
    5.1652   -1.7458   -0.1473 H   0  0  0  0  0  0  0  0  0  0  0  0
    4.6162   -2.5361    2.5635 H   0  0  0  0  0  0  0  0  0  0  0  0
    6.8613   -1.3252    2.0256 H   0  0  0  0  0  0  0  0  0  0  0  0
    7.3307   -0.5065    0.0320 H   0  0  0  0  0  0  0  0  0  0  0  0
  1  2  1  0
  2  3  1  0
  1  4  1  0
  4  5  1  0
  5  6  1  0
  6  7  1  0
  7  8  1  0
  8  9  1  0
  9 10  1  0
 10 11  1  0
 11 12  1  0
 12 13  2  0
 13 14  1  0
 14 15  1  0
 15 16  2  0
 16 17  1  0
 17 18  1  0
 17 19  2  0
 19 20  1  0
 20 21  1  0
 20 22  2  0
 22 23  1  0
 23 24  2  0
 13 25  1  0
 25 26  2  0
 26 27  1  0
 27 28  2  0
 28 29  1  0
 28 30  1  0
 30 31  2  0
 10 32  1  0
 32 33  1  0
 32 34  1  0
 34 35  1  0
 34 36  1  0
 36 37  1  0
  5 38  1  0
 38 39  1  0
 38 40  1  0
 40 41  1  0
 40  1  1  0
 36  8  1  0
 23 12  1  0
 31 25  1  0
 22 15  1  0
  1 42  1  1
  2 43  1  0
  2 44  1  0
  3 45  1  0
  5 46  1  1
  7 47  1  0
  7 48  1  0
  8 49  1  1
 10 50  1  1
 16 51  1  0
 18 52  1  0
 19 53  1  0
 21 54  1  0
 26 55  1  0
 27 56  1  0
 29 57  1  0
 30 58  1  0
 31 59  1  0
 32 60  1  6
 33 61  1  0
 34 62  1  6
 35 63  1  0
 36 64  1  6
 37 65  1  0
 38 66  1  6
 39 67  1  0
 40 68  1  1
 41 69  1  0
M  END
>  <LIG_ID>  (236) 
235

>  <_smiles>  (236) 
[H][C@]1(CO)O[C@@]([H])(OC[C@@]2([H])O[C@@]([H])(OC3=C(OC4=CC(O)=CC(O)=C4C3=O)C3=CC=C(O)C=C3)[C@]([H])(O)[C@@]([H])(O)[C@]2([H])O)[C@]([H])(O)[C@@]1([H])O

>  <_name>  (236) 
Kaempferol 3-O-xylosyl-glucoside

>  <_molecular_weight>  (236) 
580.492

>  <_formula>  (236) 
C26H28O15

>  <_logP>  (236) 
-1.7812000000000008

>  <_molecular_wt_calculated>  (236) 
580.4950000000015

>  <_havy_atom_count>  (236) 
41

>  <_hydrogen_acceptors>  (236) 
15

>  <_hydrogen_donors>  (236) 
9

>  <_rotatable_bonds>  (236) 
16

>  <_amide_bonds>  (236) 
0

>  <_ring_count>  (236) 
5

$$$$
Kaempferol 3-O-acetyl-glucoside
     RDKit          3D

 57 60  0  0  0  0  0  0  0  0999 V2000
    2.4356   -1.8816   -0.0981 C   0  0  1  0  0  0  0  0  0  0  0  0
    2.5425   -2.2039    1.4015 C   0  0  0  0  0  0  0  0  0  0  0  0
    2.6274   -1.0150    2.1890 O   0  0  0  0  0  0  0  0  0  0  0  0
    1.5204   -0.2413    2.5554 C   0  0  0  0  0  0  0  0  0  0  0  0
    1.7413    1.0596    3.2485 C   0  0  0  0  0  0  0  0  0  0  0  0
    0.3471   -0.6192    2.2885 O   0  0  0  0  0  0  0  0  0  0  0  0
    1.2467   -1.1547   -0.3297 O   0  0  0  0  0  0  0  0  0  0  0  0
    0.9225   -1.1296   -1.7119 C   0  0  1  0  0  0  0  0  0  0  0  0
   -0.1335   -0.1910   -1.9070 O   0  0  0  0  0  0  0  0  0  0  0  0
   -1.3241   -0.2200   -1.1698 C   0  0  0  0  0  0  0  0  0  0  0  0
   -1.6649    0.8673   -0.3479 C   0  0  0  0  0  0  0  0  0  0  0  0
   -2.7725    0.8196    0.3825 O   0  0  0  0  0  0  0  0  0  0  0  0
   -3.6022   -0.2167    0.3858 C   0  0  0  0  0  0  0  0  0  0  0  0
   -4.7550   -0.1463    1.1716 C   0  0  0  0  0  0  0  0  0  0  0  0
   -5.6651   -1.2041    1.1874 C   0  0  0  0  0  0  0  0  0  0  0  0
   -6.8271   -1.1300    1.9525 O   0  0  0  0  0  0  0  0  0  0  0  0
   -5.4071   -2.3510    0.4378 C   0  0  0  0  0  0  0  0  0  0  0  0
   -4.2406   -2.4671   -0.3282 C   0  0  0  0  0  0  0  0  0  0  0  0
   -4.0293   -3.6954   -0.9615 O   0  0  0  0  0  0  0  0  0  0  0  0
   -3.3329   -1.3682   -0.3991 C   0  0  0  0  0  0  0  0  0  0  0  0
   -2.1853   -1.3267   -1.2263 C   0  0  0  0  0  0  0  0  0  0  0  0
   -1.9389   -2.2429   -2.0528 O   0  0  0  0  0  0  0  0  0  0  0  0
   -0.8037    2.0664   -0.2376 C   0  0  0  0  0  0  0  0  0  0  0  0
   -0.5853    2.6438    1.0237 C   0  0  0  0  0  0  0  0  0  0  0  0
    0.2334    3.7691    1.1551 C   0  0  0  0  0  0  0  0  0  0  0  0
    0.8311    4.3404    0.0245 C   0  0  0  0  0  0  0  0  0  0  0  0
    1.6543    5.4577    0.1440 O   0  0  0  0  0  0  0  0  0  0  0  0
    0.5965    3.7872   -1.2376 C   0  0  0  0  0  0  0  0  0  0  0  0
   -0.2221    2.6618   -1.3720 C   0  0  0  0  0  0  0  0  0  0  0  0
    2.1250   -0.7146   -2.6114 C   0  0  2  0  0  0  0  0  0  0  0  0
    2.5897   -1.8275   -3.3330 O   0  0  0  0  0  0  0  0  0  0  0  0
    3.2882   -0.1422   -1.7772 C   0  0  1  0  0  0  0  0  0  0  0  0
    2.9827    1.1555   -1.3215 O   0  0  0  0  0  0  0  0  0  0  0  0
    3.6691   -1.0802   -0.6030 C   0  0  2  0  0  0  0  0  0  0  0  0
    4.6664   -1.9728   -1.0317 O   0  0  0  0  0  0  0  0  0  0  0  0
    2.3887   -2.8635   -0.6281 H   0  0  0  0  0  0  0  0  0  0  0  0
    3.4567   -2.8088    1.5788 H   0  0  0  0  0  0  0  0  0  0  0  0
    1.6742   -2.8192    1.7243 H   0  0  0  0  0  0  0  0  0  0  0  0
    0.7946    1.4302    3.6958 H   0  0  0  0  0  0  0  0  0  0  0  0
    2.1170    1.8054    2.5177 H   0  0  0  0  0  0  0  0  0  0  0  0
    2.4928    0.9294    4.0547 H   0  0  0  0  0  0  0  0  0  0  0  0
    0.5591   -2.1358   -2.0168 H   0  0  0  0  0  0  0  0  0  0  0  0
   -4.9496    0.7416    1.7607 H   0  0  0  0  0  0  0  0  0  0  0  0
   -7.0429   -0.3122    2.5106 H   0  0  0  0  0  0  0  0  0  0  0  0
   -6.1061   -3.1776    0.4757 H   0  0  0  0  0  0  0  0  0  0  0  0
   -3.1354   -4.0238   -1.2942 H   0  0  0  0  0  0  0  0  0  0  0  0
   -1.0331    2.2112    1.9099 H   0  0  0  0  0  0  0  0  0  0  0  0
    0.4055    4.1931    2.1362 H   0  0  0  0  0  0  0  0  0  0  0  0
    1.8434    5.8819    1.0447 H   0  0  0  0  0  0  0  0  0  0  0  0
    1.0454    4.2325   -2.1163 H   0  0  0  0  0  0  0  0  0  0  0  0
   -0.4112    2.2697   -2.3629 H   0  0  0  0  0  0  0  0  0  0  0  0
    1.8070    0.0734   -3.3352 H   0  0  0  0  0  0  0  0  0  0  0  0
    1.9336   -1.9923   -4.0600 H   0  0  0  0  0  0  0  0  0  0  0  0
    4.1704   -0.0378   -2.4473 H   0  0  0  0  0  0  0  0  0  0  0  0
    2.2722    1.0875   -0.6332 H   0  0  0  0  0  0  0  0  0  0  0  0
    4.0844   -0.4394    0.2103 H   0  0  0  0  0  0  0  0  0  0  0  0
    5.1027   -2.3321   -0.2157 H   0  0  0  0  0  0  0  0  0  0  0  0
  1  2  1  0
  2  3  1  0
  3  4  1  0
  4  5  1  0
  4  6  2  0
  1  7  1  0
  7  8  1  0
  8  9  1  0
  9 10  1  0
 10 11  2  0
 11 12  1  0
 12 13  1  0
 13 14  2  0
 14 15  1  0
 15 16  1  0
 15 17  2  0
 17 18  1  0
 18 19  1  0
 18 20  2  0
 20 21  1  0
 21 22  2  0
 11 23  1  0
 23 24  2  0
 24 25  1  0
 25 26  2  0
 26 27  1  0
 26 28  1  0
 28 29  2  0
  8 30  1  0
 30 31  1  0
 30 32  1  0
 32 33  1  0
 32 34  1  0
 34 35  1  0
 34  1  1  0
 21 10  1  0
 29 23  1  0
 20 13  1  0
  1 36  1  6
  2 37  1  0
  2 38  1  0
  5 39  1  0
  5 40  1  0
  5 41  1  0
  8 42  1  6
 14 43  1  0
 16 44  1  0
 17 45  1  0
 19 46  1  0
 24 47  1  0
 25 48  1  0
 27 49  1  0
 28 50  1  0
 29 51  1  0
 30 52  1  6
 31 53  1  0
 32 54  1  6
 33 55  1  0
 34 56  1  1
 35 57  1  0
M  END
>  <LIG_ID>  (237) 
236

>  <_smiles>  (237) 
[H][C@]1(COC(C)=O)O[C@@]([H])(OC2=C(OC3=CC(O)=CC(O)=C3C2=O)C2=CC=C(O)C=C2)[C@]([H])(O)[C@@]([H])(O)[C@]1([H])O

>  <_name>  (237) 
Kaempferol 3-O-acetyl-glucoside

>  <_molecular_weight>  (237) 
490.414

>  <_formula>  (237) 
C23H22O12

>  <_logP>  (237) 
0.3262999999999994

>  <_molecular_wt_calculated>  (237) 
490.4169999999999

>  <_havy_atom_count>  (237) 
35

>  <_hydrogen_acceptors>  (237) 
12

>  <_hydrogen_donors>  (237) 
6

>  <_rotatable_bonds>  (237) 
12

>  <_amide_bonds>  (237) 
0

>  <_ring_count>  (237) 
4

$$$$
Quercetin 3-O-xylosyl-rutinoside
     RDKit          3D

 90 95  0  0  0  0  0  0  0  0999 V2000
    5.6981   -3.7429   -0.5404 C   0  0  0  0  0  0  0  0  0  0  0  0
    4.1757   -3.8339   -0.6947 C   0  0  2  0  0  0  0  0  0  0  0  0
    3.6289   -2.5574   -1.0180 O   0  0  0  0  0  0  0  0  0  0  0  0
    3.2731   -1.8079    0.1312 C   0  0  1  0  0  0  0  0  0  0  0  0
    2.9364   -0.5007   -0.3012 O   0  0  0  0  0  0  0  0  0  0  0  0
    3.1287    0.4721    0.7129 C   0  0  0  0  0  0  0  0  0  0  0  0
    1.9226    1.4149    0.7259 C   0  0  1  0  0  0  0  0  0  0  0  0
    0.7619    0.6538    0.9834 O   0  0  0  0  0  0  0  0  0  0  0  0
   -0.4013    1.3866    0.6318 C   0  0  1  0  0  0  0  0  0  0  0  0
   -1.5530    0.6498    1.0507 O   0  0  0  0  0  0  0  0  0  0  0  0
   -1.6711   -0.7415    0.9030 C   0  0  0  0  0  0  0  0  0  0  0  0
   -1.5426   -1.3847   -0.3437 C   0  0  0  0  0  0  0  0  0  0  0  0
   -1.5288   -2.7100   -0.4044 O   0  0  0  0  0  0  0  0  0  0  0  0
   -1.6872   -3.4907    0.6569 C   0  0  0  0  0  0  0  0  0  0  0  0
   -1.6199   -4.8748    0.4829 C   0  0  0  0  0  0  0  0  0  0  0  0
   -1.7640   -5.7311    1.5714 C   0  0  0  0  0  0  0  0  0  0  0  0
   -1.6667   -7.1076    1.3803 O   0  0  0  0  0  0  0  0  0  0  0  0
   -2.0106   -5.2035    2.8414 C   0  0  0  0  0  0  0  0  0  0  0  0
   -2.1230   -3.8218    3.0401 C   0  0  0  0  0  0  0  0  0  0  0  0
   -2.4623   -3.4023    4.3297 O   0  0  0  0  0  0  0  0  0  0  0  0
   -1.9166   -2.9341    1.9421 C   0  0  0  0  0  0  0  0  0  0  0  0
   -1.8737   -1.5229    2.0463 C   0  0  0  0  0  0  0  0  0  0  0  0
   -1.9565   -0.9404    3.1591 O   0  0  0  0  0  0  0  0  0  0  0  0
   -1.4215   -0.6387   -1.6063 C   0  0  0  0  0  0  0  0  0  0  0  0
   -2.3936    0.3042   -1.9766 C   0  0  0  0  0  0  0  0  0  0  0  0
   -2.2876    0.9902   -3.1918 C   0  0  0  0  0  0  0  0  0  0  0  0
   -3.2798    1.9044   -3.5429 O   0  0  0  0  0  0  0  0  0  0  0  0
   -1.1946    0.7440   -4.0405 C   0  0  0  0  0  0  0  0  0  0  0  0
   -1.0751    1.4358   -5.2447 O   0  0  0  0  0  0  0  0  0  0  0  0
   -0.2281   -0.2028   -3.6727 C   0  0  0  0  0  0  0  0  0  0  0  0
   -0.3473   -0.8996   -2.4680 C   0  0  0  0  0  0  0  0  0  0  0  0
   -0.4409    2.8076    1.2747 C   0  0  2  0  0  0  0  0  0  0  0  0
   -0.2627    3.7846    0.2579 O   0  0  0  0  0  0  0  0  0  0  0  0
   -1.4876    4.3923   -0.1075 C   0  0  2  0  0  0  0  0  0  0  0  0
   -2.3627    3.4249   -0.6620 O   0  0  0  0  0  0  0  0  0  0  0  0
   -3.6747    3.9541   -0.7628 C   0  0  0  0  0  0  0  0  0  0  0  0
   -3.7238    5.3390   -1.4595 C   0  0  1  0  0  0  0  0  0  0  0  0
   -4.0166    6.3285   -0.5056 O   0  0  0  0  0  0  0  0  0  0  0  0
   -2.3773    5.6546   -2.1468 C   0  0  2  0  0  0  0  0  0  0  0  0
   -2.1853    4.7840   -3.2335 O   0  0  0  0  0  0  0  0  0  0  0  0
   -1.1984    5.4930   -1.1545 C   0  0  1  0  0  0  0  0  0  0  0  0
   -0.9541    6.7058   -0.4880 O   0  0  0  0  0  0  0  0  0  0  0  0
    0.6791    2.9938    2.3263 C   0  0  1  0  0  0  0  0  0  0  0  0
    0.3375    2.3476    3.5302 O   0  0  0  0  0  0  0  0  0  0  0  0
    2.0673    2.5124    1.8116 C   0  0  2  0  0  0  0  0  0  0  0  0
    2.8312    3.5894    1.3261 O   0  0  0  0  0  0  0  0  0  0  0  0
    2.0489   -2.4596    0.8315 C   0  0  2  0  0  0  0  0  0  0  0  0
    2.0542   -2.1055    2.1922 O   0  0  0  0  0  0  0  0  0  0  0  0
    2.0622   -4.0008    0.6663 C   0  0  2  0  0  0  0  0  0  0  0  0
    1.3747   -4.6453    1.7121 O   0  0  0  0  0  0  0  0  0  0  0  0
    3.5024   -4.5197    0.5295 C   0  0  1  0  0  0  0  0  0  0  0  0
    3.4823   -5.9139    0.3594 O   0  0  0  0  0  0  0  0  0  0  0  0
    6.1349   -4.7593   -0.4441 H   0  0  0  0  0  0  0  0  0  0  0  0
    5.9752   -3.1509    0.3565 H   0  0  0  0  0  0  0  0  0  0  0  0
    6.1378   -3.2570   -1.4370 H   0  0  0  0  0  0  0  0  0  0  0  0
    3.9860   -4.4801   -1.5802 H   0  0  0  0  0  0  0  0  0  0  0  0
    4.1489   -1.7825    0.8260 H   0  0  0  0  0  0  0  0  0  0  0  0
    3.2561    0.0458    1.7346 H   0  0  0  0  0  0  0  0  0  0  0  0
    4.0455    1.0532    0.4750 H   0  0  0  0  0  0  0  0  0  0  0  0
    1.8685    1.8822   -0.2875 H   0  0  0  0  0  0  0  0  0  0  0  0
   -0.4379    1.4919   -0.4728 H   0  0  0  0  0  0  0  0  0  0  0  0
   -1.4359   -5.2860   -0.5022 H   0  0  0  0  0  0  0  0  0  0  0  0
   -1.7671   -7.7580    2.1508 H   0  0  0  0  0  0  0  0  0  0  0  0
   -2.1460   -5.8744    3.6808 H   0  0  0  0  0  0  0  0  0  0  0  0
   -2.8457   -2.4976    4.5578 H   0  0  0  0  0  0  0  0  0  0  0  0
   -3.2382    0.4993   -1.3266 H   0  0  0  0  0  0  0  0  0  0  0  0
   -3.2559    2.4155   -4.4169 H   0  0  0  0  0  0  0  0  0  0  0  0
   -0.2967    1.2758   -5.8735 H   0  0  0  0  0  0  0  0  0  0  0  0
    0.6141   -0.4025   -4.3228 H   0  0  0  0  0  0  0  0  0  0  0  0
    0.4065   -1.6300   -2.1991 H   0  0  0  0  0  0  0  0  0  0  0  0
   -1.4079    2.9346    1.8220 H   0  0  0  0  0  0  0  0  0  0  0  0
   -1.9420    4.8709    0.7971 H   0  0  0  0  0  0  0  0  0  0  0  0
   -4.1436    3.9959    0.2459 H   0  0  0  0  0  0  0  0  0  0  0  0
   -4.2817    3.2373   -1.3549 H   0  0  0  0  0  0  0  0  0  0  0  0
   -4.5339    5.3223   -2.2264 H   0  0  0  0  0  0  0  0  0  0  0  0
   -4.3054    7.1354   -1.0070 H   0  0  0  0  0  0  0  0  0  0  0  0
   -2.3931    6.7036   -2.5264 H   0  0  0  0  0  0  0  0  0  0  0  0
   -2.7836    5.0951   -3.9624 H   0  0  0  0  0  0  0  0  0  0  0  0
   -0.2878    5.2052   -1.7338 H   0  0  0  0  0  0  0  0  0  0  0  0
   -0.4759    7.2957   -1.1279 H   0  0  0  0  0  0  0  0  0  0  0  0
    0.7465    4.0787    2.5634 H   0  0  0  0  0  0  0  0  0  0  0  0
    0.2963    1.3718    3.3565 H   0  0  0  0  0  0  0  0  0  0  0  0
    2.6175    2.0965    2.6847 H   0  0  0  0  0  0  0  0  0  0  0  0
    2.3238    4.0112    0.5848 H   0  0  0  0  0  0  0  0  0  0  0  0
    1.1239   -2.0735    0.3445 H   0  0  0  0  0  0  0  0  0  0  0  0
    1.1087   -2.0977    2.4955 H   0  0  0  0  0  0  0  0  0  0  0  0
    1.5257   -4.2456   -0.2784 H   0  0  0  0  0  0  0  0  0  0  0  0
    1.9365   -4.5926    2.5289 H   0  0  0  0  0  0  0  0  0  0  0  0
    4.0535   -4.2623    1.4660 H   0  0  0  0  0  0  0  0  0  0  0  0
    4.3958   -6.2408    0.5684 H   0  0  0  0  0  0  0  0  0  0  0  0
  1  2  1  0
  2  3  1  0
  3  4  1  0
  4  5  1  0
  5  6  1  0
  6  7  1  0
  7  8  1  0
  8  9  1  0
  9 10  1  0
 10 11  1  0
 11 12  2  0
 12 13  1  0
 13 14  1  0
 14 15  2  0
 15 16  1  0
 16 17  1  0
 16 18  2  0
 18 19  1  0
 19 20  1  0
 19 21  2  0
 21 22  1  0
 22 23  2  0
 12 24  1  0
 24 25  2  0
 25 26  1  0
 26 27  1  0
 26 28  2  0
 28 29  1  0
 28 30  1  0
 30 31  2  0
  9 32  1  0
 32 33  1  0
 33 34  1  0
 34 35  1  0
 35 36  1  0
 36 37  1  0
 37 38  1  0
 37 39  1  0
 39 40  1  0
 39 41  1  0
 41 42  1  0
 32 43  1  0
 43 44  1  0
 43 45  1  0
 45 46  1  0
  4 47  1  0
 47 48  1  0
 47 49  1  0
 49 50  1  0
 49 51  1  0
 51 52  1  0
 51  2  1  0
 45  7  1  0
 22 11  1  0
 31 24  1  0
 41 34  1  0
 21 14  1  0
  1 53  1  0
  1 54  1  0
  1 55  1  0
  2 56  1  6
  4 57  1  1
  6 58  1  0
  6 59  1  0
  7 60  1  6
  9 61  1  6
 15 62  1  0
 17 63  1  0
 18 64  1  0
 20 65  1  0
 25 66  1  0
 27 67  1  0
 29 68  1  0
 30 69  1  0
 31 70  1  0
 32 71  1  1
 34 72  1  1
 36 73  1  0
 36 74  1  0
 37 75  1  6
 38 76  1  0
 39 77  1  6
 40 78  1  0
 41 79  1  6
 42 80  1  0
 43 81  1  1
 44 82  1  0
 45 83  1  1
 46 84  1  0
 47 85  1  6
 48 86  1  0
 49 87  1  6
 50 88  1  0
 51 89  1  1
 52 90  1  0
M  END
>  <LIG_ID>  (238) 
237

>  <_smiles>  (238) 
C[C@@H]1O[C@@H](OC[C@H]2O[C@@H](OC3=C(OC4=CC(O)=CC(O)=C4C3=O)C3=CC(O)=C(O)C=C3)[C@H](O[C@@H]3OC[C@@H](O)[C@H](O)[C@H]3O)[C@@H](O)[C@@H]2O)[C@H](O)[C@H](O)[C@H]1O

>  <_name>  (238) 
Quercetin 3-O-xylosyl-rutinoside

>  <_molecular_weight>  (238) 
742.632

>  <_formula>  (238) 
C32H38O20

>  <_logP>  (238) 
-3.2238

>  <_molecular_wt_calculated>  (238) 
742.6360000000018

>  <_havy_atom_count>  (238) 
52

>  <_hydrogen_acceptors>  (238) 
20

>  <_hydrogen_donors>  (238) 
12

>  <_rotatable_bonds>  (238) 
21

>  <_amide_bonds>  (238) 
0

>  <_ring_count>  (238) 
6

$$$$
Kaempferol 3-O-xylosyl-rutinoside
     RDKit          3D

 92 97  0  0  0  0  0  0  0  0999 V2000
    7.1072    0.5483   -0.9249 C   0  0  2  0  0  0  0  0  0  0  0  0
    7.3898    1.2203    0.4234 C   0  0  0  0  0  0  0  0  0  0  0  0
    5.7553    0.1028   -0.9836 O   0  0  0  0  0  0  0  0  0  0  0  0
    5.6090   -1.2215   -0.4953 C   0  0  1  0  0  0  0  0  0  0  0  0
    4.2354   -1.5361   -0.3670 O   0  0  0  0  0  0  0  0  0  0  0  0
    3.6049   -0.7290    0.6186 C   0  0  2  0  0  0  0  0  0  0  0  0
    2.7197   -1.6227    1.5047 C   0  0  1  0  0  0  0  0  0  0  0  0
    3.4711   -2.6476    2.1084 O   0  0  0  0  0  0  0  0  0  0  0  0
    1.9966   -0.7517    2.5767 C   0  0  2  0  0  0  0  0  0  0  0  0
    0.6795   -1.3863    3.0353 C   0  0  0  0  0  0  0  0  0  0  0  0
    1.7852    0.5990    2.1733 O   0  0  0  0  0  0  0  0  0  0  0  0
    1.4887    0.7026    0.7901 C   0  0  1  0  0  0  0  0  0  0  0  0
    1.0780    2.0253    0.4980 O   0  0  0  0  0  0  0  0  0  0  0  0
   -0.2569    2.2500    0.9183 C   0  0  0  0  0  0  0  0  0  0  0  0
   -1.2374    2.0387   -0.2462 C   0  0  1  0  0  0  0  0  0  0  0  0
   -2.5554    2.1642    0.2636 O   0  0  0  0  0  0  0  0  0  0  0  0
   -3.4971    1.9942   -0.7786 C   0  0  1  0  0  0  0  0  0  0  0  0
   -4.7920    1.8170   -0.2077 O   0  0  0  0  0  0  0  0  0  0  0  0
   -5.1059    0.7047    0.5816 C   0  0  0  0  0  0  0  0  0  0  0  0
   -5.2400   -0.5820    0.0261 C   0  0  0  0  0  0  0  0  0  0  0  0
   -5.4764   -1.6181    0.8218 O   0  0  0  0  0  0  0  0  0  0  0  0
   -5.6130   -1.5138    2.1385 C   0  0  0  0  0  0  0  0  0  0  0  0
   -5.8881   -2.6694    2.8733 C   0  0  0  0  0  0  0  0  0  0  0  0
   -6.0651   -2.6043    4.2528 C   0  0  0  0  0  0  0  0  0  0  0  0
   -6.3588   -3.7661    4.9634 O   0  0  0  0  0  0  0  0  0  0  0  0
   -5.9398   -1.3788    4.9114 C   0  0  0  0  0  0  0  0  0  0  0  0
   -5.6276   -0.2088    4.2080 C   0  0  0  0  0  0  0  0  0  0  0  0
   -5.4377    0.9450    4.9748 O   0  0  0  0  0  0  0  0  0  0  0  0
   -5.4971   -0.2557    2.7868 C   0  0  0  0  0  0  0  0  0  0  0  0
   -5.2767    0.8720    1.9599 C   0  0  0  0  0  0  0  0  0  0  0  0
   -5.2396    2.0398    2.4276 O   0  0  0  0  0  0  0  0  0  0  0  0
   -5.1381   -0.8304   -1.4288 C   0  0  0  0  0  0  0  0  0  0  0  0
   -5.7661    0.0167   -2.3600 C   0  0  0  0  0  0  0  0  0  0  0  0
   -5.6522   -0.2331   -3.7306 C   0  0  0  0  0  0  0  0  0  0  0  0
   -4.9264   -1.3374   -4.1869 C   0  0  0  0  0  0  0  0  0  0  0  0
   -4.8190   -1.5723   -5.5557 O   0  0  0  0  0  0  0  0  0  0  0  0
   -4.3178   -2.1982   -3.2641 C   0  0  0  0  0  0  0  0  0  0  0  0
   -4.4290   -1.9501   -1.8927 C   0  0  0  0  0  0  0  0  0  0  0  0
   -3.5102    3.2347   -1.6983 C   0  0  2  0  0  0  0  0  0  0  0  0
   -3.7921    2.8288   -3.0139 O   0  0  0  0  0  0  0  0  0  0  0  0
   -2.1626    3.9983   -1.6455 C   0  0  1  0  0  0  0  0  0  0  0  0
   -2.2167    4.9371   -0.5998 O   0  0  0  0  0  0  0  0  0  0  0  0
   -0.9647    3.0444   -1.4159 C   0  0  2  0  0  0  0  0  0  0  0  0
   -0.6366    2.3617   -2.6019 O   0  0  0  0  0  0  0  0  0  0  0  0
    2.7455    0.3800   -0.0487 C   0  0  2  0  0  0  0  0  0  0  0  0
    2.3364   -0.0079   -1.3374 O   0  0  0  0  0  0  0  0  0  0  0  0
    6.2558   -2.2239   -1.4803 C   0  0  2  0  0  0  0  0  0  0  0  0
    6.6128   -3.3956   -0.7904 O   0  0  0  0  0  0  0  0  0  0  0  0
    7.5006   -1.6088   -2.1688 C   0  0  2  0  0  0  0  0  0  0  0  0
    8.4391   -2.6019   -2.4957 O   0  0  0  0  0  0  0  0  0  0  0  0
    8.1519   -0.5585   -1.2606 C   0  0  1  0  0  0  0  0  0  0  0  0
    9.2622    0.0009   -1.9146 O   0  0  0  0  0  0  0  0  0  0  0  0
    7.2027    1.3402   -1.7002 H   0  0  0  0  0  0  0  0  0  0  0  0
    6.6280    2.0047    0.6180 H   0  0  0  0  0  0  0  0  0  0  0  0
    7.3586    0.4830    1.2523 H   0  0  0  0  0  0  0  0  0  0  0  0
    8.3913    1.6998    0.4105 H   0  0  0  0  0  0  0  0  0  0  0  0
    6.1079   -1.3399    0.4977 H   0  0  0  0  0  0  0  0  0  0  0  0
    4.3317   -0.2234    1.3033 H   0  0  0  0  0  0  0  0  0  0  0  0
    1.9628   -2.1068    0.8472 H   0  0  0  0  0  0  0  0  0  0  0  0
    4.2065   -2.2225    2.6227 H   0  0  0  0  0  0  0  0  0  0  0  0
    2.6530   -0.7037    3.4729 H   0  0  0  0  0  0  0  0  0  0  0  0
    0.2138   -0.7572    3.8233 H   0  0  0  0  0  0  0  0  0  0  0  0
   -0.0341   -1.4814    2.1905 H   0  0  0  0  0  0  0  0  0  0  0  0
    0.8703   -2.3961    3.4570 H   0  0  0  0  0  0  0  0  0  0  0  0
    0.6877   -0.0229    0.5046 H   0  0  0  0  0  0  0  0  0  0  0  0
   -0.5564    1.6154    1.7868 H   0  0  0  0  0  0  0  0  0  0  0  0
   -0.3381    3.3013    1.2688 H   0  0  0  0  0  0  0  0  0  0  0  0
   -1.0885    0.9939   -0.6034 H   0  0  0  0  0  0  0  0  0  0  0  0
   -3.2530    1.0876   -1.3800 H   0  0  0  0  0  0  0  0  0  0  0  0
   -5.9792   -3.6221    2.3658 H   0  0  0  0  0  0  0  0  0  0  0  0
   -6.4915   -3.7539    5.9680 H   0  0  0  0  0  0  0  0  0  0  0  0
   -6.0565   -1.3373    5.9874 H   0  0  0  0  0  0  0  0  0  0  0  0
   -4.9618    1.7767    4.6614 H   0  0  0  0  0  0  0  0  0  0  0  0
   -6.3516    0.8649   -2.0289 H   0  0  0  0  0  0  0  0  0  0  0  0
   -6.1326    0.4299   -4.4389 H   0  0  0  0  0  0  0  0  0  0  0  0
   -4.3007   -2.3642   -5.9178 H   0  0  0  0  0  0  0  0  0  0  0  0
   -3.7578   -3.0584   -3.6081 H   0  0  0  0  0  0  0  0  0  0  0  0
   -3.9468   -2.6224   -1.1934 H   0  0  0  0  0  0  0  0  0  0  0  0
   -4.3173    3.9247   -1.3523 H   0  0  0  0  0  0  0  0  0  0  0  0
   -4.1044    3.6335   -3.5045 H   0  0  0  0  0  0  0  0  0  0  0  0
   -2.0166    4.5417   -2.6093 H   0  0  0  0  0  0  0  0  0  0  0  0
   -1.5069    5.6091   -0.7753 H   0  0  0  0  0  0  0  0  0  0  0  0
   -0.0846    3.6803   -1.1741 H   0  0  0  0  0  0  0  0  0  0  0  0
   -1.3934    1.7639   -2.8326 H   0  0  0  0  0  0  0  0  0  0  0  0
    3.3698    1.3039   -0.1134 H   0  0  0  0  0  0  0  0  0  0  0  0
    3.0728    0.2267   -1.9606 H   0  0  0  0  0  0  0  0  0  0  0  0
    5.5258   -2.4780   -2.2851 H   0  0  0  0  0  0  0  0  0  0  0  0
    5.7694   -3.8840   -0.6001 H   0  0  0  0  0  0  0  0  0  0  0  0
    7.1751   -1.0914   -3.1033 H   0  0  0  0  0  0  0  0  0  0  0  0
    8.0567   -3.1148   -3.2551 H   0  0  0  0  0  0  0  0  0  0  0  0
    8.4867   -1.0735   -0.3280 H   0  0  0  0  0  0  0  0  0  0  0  0
    9.8128    0.4421   -1.2165 H   0  0  0  0  0  0  0  0  0  0  0  0
  1  2  1  0
  1  3  1  0
  3  4  1  0
  4  5  1  0
  5  6  1  0
  6  7  1  0
  7  8  1  0
  7  9  1  0
  9 10  1  0
  9 11  1  0
 11 12  1  0
 12 13  1  0
 13 14  1  0
 14 15  1  0
 15 16  1  0
 16 17  1  0
 17 18  1  0
 18 19  1  0
 19 20  2  0
 20 21  1  0
 21 22  1  0
 22 23  2  0
 23 24  1  0
 24 25  1  0
 24 26  2  0
 26 27  1  0
 27 28  1  0
 27 29  2  0
 29 30  1  0
 30 31  2  0
 20 32  1  0
 32 33  2  0
 33 34  1  0
 34 35  2  0
 35 36  1  0
 35 37  1  0
 37 38  2  0
 17 39  1  0
 39 40  1  0
 39 41  1  0
 41 42  1  0
 41 43  1  0
 43 44  1  0
 12 45  1  0
 45 46  1  0
  4 47  1  0
 47 48  1  0
 47 49  1  0
 49 50  1  0
 49 51  1  0
 51 52  1  0
 51  1  1  0
 45  6  1  0
 43 15  1  0
 30 19  1  0
 38 32  1  0
 29 22  1  0
  1 53  1  6
  2 54  1  0
  2 55  1  0
  2 56  1  0
  4 57  1  1
  6 58  1  1
  7 59  1  6
  8 60  1  0
  9 61  1  1
 10 62  1  0
 10 63  1  0
 10 64  1  0
 12 65  1  6
 14 66  1  0
 14 67  1  0
 15 68  1  6
 17 69  1  6
 23 70  1  0
 25 71  1  0
 26 72  1  0
 28 73  1  0
 33 74  1  0
 34 75  1  0
 36 76  1  0
 37 77  1  0
 38 78  1  0
 39 79  1  1
 40 80  1  0
 41 81  1  6
 42 82  1  0
 43 83  1  1
 44 84  1  0
 45 85  1  6
 46 86  1  0
 47 87  1  6
 48 88  1  0
 49 89  1  6
 50 90  1  0
 51 91  1  1
 52 92  1  0
M  END
>  <LIG_ID>  (239) 
238

>  <_smiles>  (239) 
[H][C@@]1(C)O[C@@]([H])(O[C@]2([H])[C@@]([H])(O)[C@]([H])(C)O[C@@]([H])(OC[C@@]3([H])O[C@@]([H])(OC4=C(OC5=CC(O)=CC(O)=C5C4=O)C4=CC=C(O)C=C4)[C@]([H])(O)[C@@]([H])(O)[C@]3([H])O)[C@]2([H])O)[C@]([H])(O)[C@]([H])(O)[C@@]1([H])O

>  <_name>  (239) 
Kaempferol 3-O-xylosyl-rutinoside

>  <_molecular_weight>  (239) 
740.659

>  <_formula>  (239) 
C33H40O19

>  <_logP>  (239) 
-2.5408999999999993

>  <_molecular_wt_calculated>  (239) 
740.6640000000019

>  <_havy_atom_count>  (239) 
52

>  <_hydrogen_acceptors>  (239) 
19

>  <_hydrogen_donors>  (239) 
11

>  <_rotatable_bonds>  (239) 
21

>  <_amide_bonds>  (239) 
0

>  <_ring_count>  (239) 
6

$$$$
Kaempferol 7-O-glucoside
     RDKit          3D

 51 54  0  0  0  0  0  0  0  0999 V2000
   -4.2597   -2.7170   -1.0408 O   0  0  0  0  0  0  0  0  0  0  0  0
   -5.0824   -1.6704   -1.4815 C   0  0  0  0  0  0  0  0  0  0  0  0
   -4.7511   -0.3745   -0.7272 C   0  0  1  0  0  0  0  0  0  0  0  0
   -3.3801   -0.0765   -0.9296 O   0  0  0  0  0  0  0  0  0  0  0  0
   -2.9824    1.0140   -0.1165 C   0  0  0  0  0  0  0  0  0  0  0  0
   -1.5726    1.1942   -0.2431 O   0  0  0  0  0  0  0  0  0  0  0  0
   -0.6046    0.2652    0.1702 C   0  0  0  0  0  0  0  0  0  0  0  0
   -0.9393   -0.9508    0.7935 C   0  0  0  0  0  0  0  0  0  0  0  0
    0.0594   -1.8538    1.1869 C   0  0  0  0  0  0  0  0  0  0  0  0
   -0.3069   -3.0532    1.7992 O   0  0  0  0  0  0  0  0  0  0  0  0
    1.4195   -1.5401    0.9596 C   0  0  0  0  0  0  0  0  0  0  0  0
    2.4794   -2.3978    1.3180 C   0  0  0  0  0  0  0  0  0  0  0  0
    2.2611   -3.5128    1.8655 O   0  0  0  0  0  0  0  0  0  0  0  0
    3.7980   -2.0136    1.0559 C   0  0  0  0  0  0  0  0  0  0  0  0
    4.8431   -2.8803    1.3641 O   0  0  0  0  0  1  0  0  0  0  0  0
    4.0421   -0.7653    0.4531 C   0  0  0  0  0  0  0  0  0  0  0  0
    3.0174    0.0125    0.1144 O   0  0  0  0  0  0  0  0  0  0  0  0
    1.7486   -0.3139    0.3371 C   0  0  0  0  0  0  0  0  0  0  0  0
    0.7400    0.5720   -0.0505 C   0  0  0  0  0  0  0  0  0  0  0  0
    5.4120   -0.2852    0.1604 C   0  0  0  0  0  0  0  0  0  0  0  0
    5.6644    0.3910   -1.0451 C   0  0  0  0  0  0  0  0  0  0  0  0
    6.9453    0.8722   -1.3327 C   0  0  0  0  0  0  0  0  0  0  0  0
    7.9851    0.6981   -0.4148 C   0  0  0  0  0  0  0  0  0  0  0  0
    9.2563    1.1822   -0.7148 O   0  0  0  0  0  0  0  0  0  0  0  0
    7.7376    0.0434    0.7987 C   0  0  0  0  0  0  0  0  0  0  0  0
    6.4580   -0.4399    1.0887 C   0  0  0  0  0  0  0  0  0  0  0  0
   -3.6944    2.2996   -0.5753 C   0  0  2  0  0  0  0  0  0  0  0  0
   -3.3350    3.3744    0.2542 O   0  0  0  0  0  0  0  0  0  0  0  0
   -5.2187    2.0936   -0.5053 C   0  0  1  0  0  0  0  0  0  0  0  0
   -5.8976    3.2042   -1.0376 O   0  0  0  0  0  0  0  0  0  0  0  0
   -5.6297    0.7938   -1.2290 C   0  0  2  0  0  0  0  0  0  0  0  0
   -6.9819    0.5148   -0.9698 O   0  0  0  0  0  0  0  0  0  0  0  0
   -4.6004   -2.9907   -0.1493 H   0  0  0  0  0  0  0  0  0  0  0  0
   -6.1528   -1.9439   -1.3394 H   0  0  0  0  0  0  0  0  0  0  0  0
   -4.9107   -1.5231   -2.5694 H   0  0  0  0  0  0  0  0  0  0  0  0
   -4.9578   -0.5585    0.3541 H   0  0  0  0  0  0  0  0  0  0  0  0
   -3.2170    0.8259    0.9581 H   0  0  0  0  0  0  0  0  0  0  0  0
   -1.9730   -1.2082    0.9787 H   0  0  0  0  0  0  0  0  0  0  0  0
   -1.2774   -3.2920    1.9673 H   0  0  0  0  0  0  0  0  0  0  0  0
    1.0032    1.5081   -0.5279 H   0  0  0  0  0  0  0  0  0  0  0  0
    4.8721    0.5360   -1.7695 H   0  0  0  0  0  0  0  0  0  0  0  0
    7.1294    1.3827   -2.2695 H   0  0  0  0  0  0  0  0  0  0  0  0
   10.0303    1.0730   -0.0698 H   0  0  0  0  0  0  0  0  0  0  0  0
    8.5336   -0.0836    1.5215 H   0  0  0  0  0  0  0  0  0  0  0  0
    6.2831   -0.9098    2.0479 H   0  0  0  0  0  0  0  0  0  0  0  0
   -3.4061    2.5151   -1.6320 H   0  0  0  0  0  0  0  0  0  0  0  0
   -2.4513    3.6991   -0.0610 H   0  0  0  0  0  0  0  0  0  0  0  0
   -5.5091    2.0013    0.5656 H   0  0  0  0  0  0  0  0  0  0  0  0
   -5.6462    3.2813   -1.9952 H   0  0  0  0  0  0  0  0  0  0  0  0
   -5.4650    0.9121   -2.3269 H   0  0  0  0  0  0  0  0  0  0  0  0
   -7.5156    1.0951   -1.5730 H   0  0  0  0  0  0  0  0  0  0  0  0
  1  2  1  0
  2  3  1  0
  3  4  1  0
  4  5  1  0
  5  6  1  0
  6  7  1  0
  7  8  2  0
  8  9  1  0
  9 10  1  0
  9 11  2  0
 11 12  1  0
 12 13  2  0
 12 14  1  0
 14 15  1  0
 14 16  2  0
 16 17  1  0
 17 18  1  0
 18 19  2  0
 16 20  1  0
 20 21  2  0
 21 22  1  0
 22 23  2  0
 23 24  1  0
 23 25  1  0
 25 26  2  0
  5 27  1  0
 27 28  1  0
 27 29  1  0
 29 30  1  0
 29 31  1  0
 31 32  1  0
 31  3  1  0
 19  7  1  0
 26 20  1  0
 18 11  1  0
  1 33  1  0
  2 34  1  0
  2 35  1  0
  3 36  1  1
  5 37  1  0
  8 38  1  0
 10 39  1  0
 19 40  1  0
 21 41  1  0
 22 42  1  0
 24 43  1  0
 25 44  1  0
 26 45  1  0
 27 46  1  6
 28 47  1  0
 29 48  1  1
 30 49  1  0
 31 50  1  6
 32 51  1  0
M  CHG  1  15  -1
M  END
>  <LIG_ID>  (240) 
239

>  <_smiles>  (240) 
OC[C@H]1OC(OC2=CC(O)=C3C(=O)C([O-])=C(OC3=C2)C2=CC=C(O)C=C2)[C@H](O)[C@@H](O)[C@@H]1O

>  <_name>  (240) 
Kaempferol 7-O-glucoside

>  <_molecular_weight>  (240) 
447.369

>  <_formula>  (240) 
C21H19O11

>  <_logP>  (240) 
-0.8765000000000003

>  <_molecular_wt_calculated>  (240) 
447.3719999999999

>  <_havy_atom_count>  (240) 
32

>  <_hydrogen_acceptors>  (240) 
11

>  <_hydrogen_donors>  (240) 
6

>  <_rotatable_bonds>  (240) 
10

>  <_amide_bonds>  (240) 
0

>  <_ring_count>  (240) 
4

$$$$
Kaempferol 3-O-galactoside 7-O-rhamnoside
     RDKit          3D

 72 76  0  0  0  0  0  0  0  0999 V2000
    7.8113    2.3606    1.4751 C   0  0  0  0  0  0  0  0  0  0  0  0
    7.7059    1.0734    0.6498 C   0  0  0  0  0  0  0  0  0  0  0  0
    6.6020    0.2882    1.0958 O   0  0  0  0  0  0  0  0  0  0  0  0
    5.4124    0.5841    0.3879 C   0  0  0  0  0  0  0  0  0  0  0  0
    4.3232   -0.0610    1.0523 O   0  0  0  0  0  0  0  0  0  0  0  0
    2.9580    0.1729    0.8157 C   0  0  0  0  0  0  0  0  0  0  0  0
    2.4924    1.2043   -0.0192 C   0  0  0  0  0  0  0  0  0  0  0  0
    1.1179    1.3956   -0.2249 C   0  0  0  0  0  0  0  0  0  0  0  0
    0.6929    2.4282   -1.0624 O   0  0  0  0  0  0  0  0  0  0  0  0
    0.1837    0.5454    0.4148 C   0  0  0  0  0  0  0  0  0  0  0  0
   -1.2133    0.6830    0.2658 C   0  0  0  0  0  0  0  0  0  0  0  0
   -1.6817    1.6088   -0.4479 O   0  0  0  0  0  0  0  0  0  0  0  0
   -2.0796   -0.2105    0.9376 C   0  0  0  0  0  0  0  0  0  0  0  0
   -3.4858   -0.1259    0.8850 O   0  0  0  0  0  0  0  0  0  0  0  0
   -4.2717    0.6438   -0.0256 C   0  0  0  0  0  0  0  0  0  0  0  0
   -3.9562    0.2615   -1.3526 O   0  0  0  0  0  0  0  0  0  0  0  0
   -4.5132    1.1882   -2.2731 C   0  0  0  0  0  0  0  0  0  0  0  0
   -4.1671    0.7308   -3.6948 C   0  0  0  0  0  0  0  0  0  0  0  0
   -4.6947   -0.5441   -3.9392 O   0  0  0  0  0  0  0  0  0  0  0  0
   -6.0576    1.3575   -2.0844 C   0  0  0  0  0  0  0  0  0  0  0  0
   -6.3466    2.6600   -1.6435 O   0  0  0  0  0  0  0  0  0  0  0  0
   -6.6008    0.3516   -1.0548 C   0  0  0  0  0  0  0  0  0  0  0  0
   -6.5421   -0.9415   -1.6064 O   0  0  0  0  0  0  0  0  0  0  0  0
   -5.7808    0.4170    0.2584 C   0  0  0  0  0  0  0  0  0  0  0  0
   -5.9738   -0.7563    1.0096 O   0  0  0  0  0  0  0  0  0  0  0  0
   -1.5050   -1.2210    1.7354 C   0  0  0  0  0  0  0  0  0  0  0  0
   -0.1854   -1.3024    1.8659 O   0  0  0  0  0  0  0  0  0  0  0  0
    0.6603   -0.4848    1.2540 C   0  0  0  0  0  0  0  0  0  0  0  0
    2.0327   -0.6591    1.4492 C   0  0  0  0  0  0  0  0  0  0  0  0
   -2.3349   -2.2114    2.4576 C   0  0  0  0  0  0  0  0  0  0  0  0
   -2.0160   -2.5469    3.7836 C   0  0  0  0  0  0  0  0  0  0  0  0
   -2.7781   -3.4922    4.4770 C   0  0  0  0  0  0  0  0  0  0  0  0
   -3.8586   -4.1242    3.8475 C   0  0  0  0  0  0  0  0  0  0  0  0
   -4.6262   -5.0660    4.5290 O   0  0  0  0  0  0  0  0  0  0  0  0
   -4.1675   -3.8111    2.5205 C   0  0  0  0  0  0  0  0  0  0  0  0
   -3.4067   -2.8672    1.8245 C   0  0  0  0  0  0  0  0  0  0  0  0
    5.5329    0.0894   -1.0811 C   0  0  0  0  0  0  0  0  0  0  0  0
    5.0874   -1.2380   -1.2178 O   0  0  0  0  0  0  0  0  0  0  0  0
    6.9794    0.2249   -1.6143 C   0  0  0  0  0  0  0  0  0  0  0  0
    6.9435    0.4786   -2.9960 O   0  0  0  0  0  0  0  0  0  0  0  0
    7.7087    1.3610   -0.8823 C   0  0  0  0  0  0  0  0  0  0  0  0
    9.0282    1.4542   -1.3557 O   0  0  0  0  0  0  0  0  0  0  0  0
    8.7528    2.8969    1.2324 H   0  0  0  0  0  0  0  0  0  0  0  0
    7.8198    2.1126    2.5576 H   0  0  0  0  0  0  0  0  0  0  0  0
    6.9540    3.0357    1.2722 H   0  0  0  0  0  0  0  0  0  0  0  0
    8.6172    0.4764    0.8749 H   0  0  0  0  0  0  0  0  0  0  0  0
    5.2349    1.6830    0.4104 H   0  0  0  0  0  0  0  0  0  0  0  0
    3.1834    1.8731   -0.5101 H   0  0  0  0  0  0  0  0  0  0  0  0
    1.3499    3.0439   -1.5275 H   0  0  0  0  0  0  0  0  0  0  0  0
   -4.0448    1.7219    0.1495 H   0  0  0  0  0  0  0  0  0  0  0  0
   -4.0111    2.1755   -2.1414 H   0  0  0  0  0  0  0  0  0  0  0  0
   -3.0598    0.7025   -3.8068 H   0  0  0  0  0  0  0  0  0  0  0  0
   -4.5740    1.4592   -4.4322 H   0  0  0  0  0  0  0  0  0  0  0  0
   -4.4406   -0.7730   -4.8707 H   0  0  0  0  0  0  0  0  0  0  0  0
   -6.6014    1.1794   -3.0429 H   0  0  0  0  0  0  0  0  0  0  0  0
   -6.2312    3.2587   -2.4273 H   0  0  0  0  0  0  0  0  0  0  0  0
   -7.6629    0.6155   -0.8336 H   0  0  0  0  0  0  0  0  0  0  0  0
   -7.2541   -1.4784   -1.1700 H   0  0  0  0  0  0  0  0  0  0  0  0
   -6.1416    1.2883    0.8552 H   0  0  0  0  0  0  0  0  0  0  0  0
   -6.8927   -0.7101    1.3831 H   0  0  0  0  0  0  0  0  0  0  0  0
    2.3846   -1.4540    2.0956 H   0  0  0  0  0  0  0  0  0  0  0  0
   -1.1849   -2.0671    4.2860 H   0  0  0  0  0  0  0  0  0  0  0  0
   -2.5276   -3.7330    5.5023 H   0  0  0  0  0  0  0  0  0  0  0  0
   -4.4268   -5.3156    5.4907 H   0  0  0  0  0  0  0  0  0  0  0  0
   -4.9932   -4.3059    2.0250 H   0  0  0  0  0  0  0  0  0  0  0  0
   -3.6440   -2.6658    0.7875 H   0  0  0  0  0  0  0  0  0  0  0  0
    4.8693    0.7284   -1.7026 H   0  0  0  0  0  0  0  0  0  0  0  0
    5.6182   -1.7977   -0.5921 H   0  0  0  0  0  0  0  0  0  0  0  0
    7.5317   -0.7263   -1.4196 H   0  0  0  0  0  0  0  0  0  0  0  0
    7.8245    0.2070   -3.3644 H   0  0  0  0  0  0  0  0  0  0  0  0
    7.1637    2.3115   -1.0994 H   0  0  0  0  0  0  0  0  0  0  0  0
    9.3576    2.3579   -1.1111 H   0  0  0  0  0  0  0  0  0  0  0  0
  1  2  1  0
  2  3  1  0
  3  4  1  0
  4  5  1  0
  5  6  1  0
  6  7  2  0
  7  8  1  0
  8  9  1  0
  8 10  2  0
 10 11  1  0
 11 12  2  0
 11 13  1  0
 13 14  1  0
 14 15  1  0
 15 16  1  0
 16 17  1  0
 17 18  1  0
 18 19  1  0
 17 20  1  0
 20 21  1  0
 20 22  1  0
 22 23  1  0
 22 24  1  0
 24 25  1  0
 13 26  2  0
 26 27  1  0
 27 28  1  0
 28 29  2  0
 26 30  1  0
 30 31  2  0
 31 32  1  0
 32 33  2  0
 33 34  1  0
 33 35  1  0
 35 36  2  0
  4 37  1  0
 37 38  1  0
 37 39  1  0
 39 40  1  0
 39 41  1  0
 41 42  1  0
 41  2  1  0
 29  6  1  0
 36 30  1  0
 28 10  1  0
 24 15  1  0
  1 43  1  0
  1 44  1  0
  1 45  1  0
  2 46  1  0
  4 47  1  0
  7 48  1  0
  9 49  1  0
 15 50  1  0
 17 51  1  0
 18 52  1  0
 18 53  1  0
 19 54  1  0
 20 55  1  0
 21 56  1  0
 22 57  1  0
 23 58  1  0
 24 59  1  0
 25 60  1  0
 29 61  1  0
 31 62  1  0
 32 63  1  0
 34 64  1  0
 35 65  1  0
 36 66  1  0
 37 67  1  0
 38 68  1  0
 39 69  1  0
 40 70  1  0
 41 71  1  0
 42 72  1  0
M  END
>  <LIG_ID>  (241) 
240

>  <_smiles>  (241) 
CC1OC(OC2=CC(O)=C3C(=O)C(OC4OC(CO)C(O)C(O)C4O)=C(OC3=C2)C2=CC=C(O)C=C2)C(O)C(O)C1O

>  <_name>  (241) 
Kaempferol 3-O-galactoside 7-O-rhamnoside

>  <_molecular_weight>  (241) 
594.518

>  <_formula>  (241) 
C27H30O15

>  <_logP>  (241) 
-1.7438000000000013

>  <_molecular_wt_calculated>  (241) 
594.5220000000015

>  <_havy_atom_count>  (241) 
42

>  <_hydrogen_acceptors>  (241) 
15

>  <_hydrogen_donors>  (241) 
9

>  <_rotatable_bonds>  (241) 
16

>  <_amide_bonds>  (241) 
0

>  <_ring_count>  (241) 
5

$$$$
Kaempferol 3-O-(6''-acetyl-galactoside) 7-O-rhamnoside
     RDKit          3D

 77 81  0  0  0  0  0  0  0  0999 V2000
    6.5181    2.3160   -0.1280 C   0  0  2  0  0  0  0  0  0  0  0  0
    6.1571    3.7332   -0.5718 C   0  0  0  0  0  0  0  0  0  0  0  0
    5.7522    1.9836    1.0145 O   0  0  0  0  0  0  0  0  0  0  0  0
    5.8072    0.5859    1.2832 C   0  0  1  0  0  0  0  0  0  0  0  0
    4.8955   -0.1157    0.4346 O   0  0  0  0  0  0  0  0  0  0  0  0
    3.5053    0.0767    0.4072 C   0  0  0  0  0  0  0  0  0  0  0  0
    2.8426    0.9499    1.2885 C   0  0  0  0  0  0  0  0  0  0  0  0
    1.4509    1.1137    1.2241 C   0  0  0  0  0  0  0  0  0  0  0  0
    0.8241    1.9875    2.1137 O   0  0  0  0  0  0  0  0  0  0  0  0
    0.7021    0.3937    0.2644 C   0  0  0  0  0  0  0  0  0  0  0  0
   -0.6988    0.4931    0.1468 C   0  0  0  0  0  0  0  0  0  0  0  0
   -1.3644    1.2499    0.9049 O   0  0  0  0  0  0  0  0  0  0  0  0
   -1.3709   -0.2720   -0.8127 C   0  0  0  0  0  0  0  0  0  0  0  0
   -2.7699   -0.2234   -0.8645 O   0  0  0  0  0  0  0  0  0  0  0  0
   -3.5992   -1.3387   -0.5270 C   0  0  2  0  0  0  0  0  0  0  0  0
   -4.9343   -1.0912   -0.9571 O   0  0  0  0  0  0  0  0  0  0  0  0
   -5.7175   -0.3607   -0.0225 C   0  0  2  0  0  0  0  0  0  0  0  0
   -5.2306    1.1043    0.1044 C   0  0  0  0  0  0  0  0  0  0  0  0
   -6.2303    1.9293    0.7030 O   0  0  0  0  0  0  0  0  0  0  0  0
   -7.3539    2.4027    0.0165 C   0  0  0  0  0  0  0  0  0  0  0  0
   -8.3857    3.1877    0.7520 C   0  0  0  0  0  0  0  0  0  0  0  0
   -7.5211    2.1446   -1.2065 O   0  0  0  0  0  0  0  0  0  0  0  0
   -5.8858   -1.1256    1.3294 C   0  0  2  0  0  0  0  0  0  0  0  0
   -5.8531   -0.2314    2.4168 O   0  0  0  0  0  0  0  0  0  0  0  0
   -4.8069   -2.2170    1.4994 C   0  0  2  0  0  0  0  0  0  0  0  0
   -4.6823   -2.5932    2.8472 O   0  0  0  0  0  0  0  0  0  0  0  0
   -3.4676   -1.6946    0.9773 C   0  0  1  0  0  0  0  0  0  0  0  0
   -2.4685   -2.6703    1.1397 O   0  0  0  0  0  0  0  0  0  0  0  0
   -0.6167   -1.0801   -1.6902 C   0  0  0  0  0  0  0  0  0  0  0  0
    0.7021   -1.1616   -1.5394 O   0  0  0  0  0  0  0  0  0  0  0  0
    1.3749   -0.4815   -0.6180 C   0  0  0  0  0  0  0  0  0  0  0  0
    2.7614   -0.6338   -0.5375 C   0  0  0  0  0  0  0  0  0  0  0  0
   -1.2359   -1.8402   -2.7981 C   0  0  0  0  0  0  0  0  0  0  0  0
   -0.7962   -3.1447   -3.0756 C   0  0  0  0  0  0  0  0  0  0  0  0
   -1.3633   -3.8737   -4.1253 C   0  0  0  0  0  0  0  0  0  0  0  0
   -2.3662   -3.3013   -4.9187 C   0  0  0  0  0  0  0  0  0  0  0  0
   -2.9400   -4.0189   -5.9657 O   0  0  0  0  0  0  0  0  0  0  0  0
   -2.7935   -1.9954   -4.6607 C   0  0  0  0  0  0  0  0  0  0  0  0
   -2.2279   -1.2639   -3.6122 C   0  0  0  0  0  0  0  0  0  0  0  0
    7.2316   -0.0145    1.1277 C   0  0  2  0  0  0  0  0  0  0  0  0
    7.4396   -1.0085    2.0981 O   0  0  0  0  0  0  0  0  0  0  0  0
    8.2956    1.0948    1.2449 C   0  0  2  0  0  0  0  0  0  0  0  0
    8.2563    1.6652    2.5300 O   0  0  0  0  0  0  0  0  0  0  0  0
    8.0322    2.1974    0.1890 C   0  0  1  0  0  0  0  0  0  0  0  0
    8.7225    1.9023   -0.9991 O   0  0  0  0  0  0  0  0  0  0  0  0
    6.2556    1.6389   -0.9763 H   0  0  0  0  0  0  0  0  0  0  0  0
    6.3540    4.4593    0.2459 H   0  0  0  0  0  0  0  0  0  0  0  0
    5.0788    3.7798   -0.8347 H   0  0  0  0  0  0  0  0  0  0  0  0
    6.7517    4.0195   -1.4654 H   0  0  0  0  0  0  0  0  0  0  0  0
    5.4910    0.4401    2.3395 H   0  0  0  0  0  0  0  0  0  0  0  0
    3.3959    1.5055    2.0325 H   0  0  0  0  0  0  0  0  0  0  0  0
    1.3473    2.5098    2.8068 H   0  0  0  0  0  0  0  0  0  0  0  0
   -3.2618   -2.2229   -1.1074 H   0  0  0  0  0  0  0  0  0  0  0  0
   -6.7327   -0.3015   -0.4706 H   0  0  0  0  0  0  0  0  0  0  0  0
   -4.9644    1.5073   -0.8974 H   0  0  0  0  0  0  0  0  0  0  0  0
   -4.3198    1.1530    0.7347 H   0  0  0  0  0  0  0  0  0  0  0  0
   -7.9382    3.6477    1.6579 H   0  0  0  0  0  0  0  0  0  0  0  0
   -8.7870    3.9934    0.1017 H   0  0  0  0  0  0  0  0  0  0  0  0
   -9.2140    2.5149    1.0567 H   0  0  0  0  0  0  0  0  0  0  0  0
   -6.8760   -1.6424    1.3061 H   0  0  0  0  0  0  0  0  0  0  0  0
   -6.4156   -0.6207    3.1365 H   0  0  0  0  0  0  0  0  0  0  0  0
   -5.0909   -3.1101    0.8924 H   0  0  0  0  0  0  0  0  0  0  0  0
   -5.4846   -3.1357    3.0660 H   0  0  0  0  0  0  0  0  0  0  0  0
   -3.1934   -0.7770    1.5498 H   0  0  0  0  0  0  0  0  0  0  0  0
   -2.1321   -2.5907    2.0705 H   0  0  0  0  0  0  0  0  0  0  0  0
    3.2671   -1.3064   -1.2196 H   0  0  0  0  0  0  0  0  0  0  0  0
   -0.0241   -3.6039   -2.4703 H   0  0  0  0  0  0  0  0  0  0  0  0
   -1.0225   -4.8824   -4.3210 H   0  0  0  0  0  0  0  0  0  0  0  0
   -2.6513   -4.9666   -6.1788 H   0  0  0  0  0  0  0  0  0  0  0  0
   -3.5606   -1.5444   -5.2774 H   0  0  0  0  0  0  0  0  0  0  0  0
   -2.5567   -0.2459   -3.4463 H   0  0  0  0  0  0  0  0  0  0  0  0
    7.3184   -0.4706    0.1124 H   0  0  0  0  0  0  0  0  0  0  0  0
    8.2417   -1.5211    1.8158 H   0  0  0  0  0  0  0  0  0  0  0  0
    9.3059    0.6556    1.0666 H   0  0  0  0  0  0  0  0  0  0  0  0
    8.7488    1.0516    3.1355 H   0  0  0  0  0  0  0  0  0  0  0  0
    8.4036    3.1684    0.5973 H   0  0  0  0  0  0  0  0  0  0  0  0
    9.6749    2.1379   -0.8460 H   0  0  0  0  0  0  0  0  0  0  0  0
  1  2  1  0
  1  3  1  0
  3  4  1  0
  4  5  1  0
  5  6  1  0
  6  7  2  0
  7  8  1  0
  8  9  1  0
  8 10  2  0
 10 11  1  0
 11 12  2  0
 11 13  1  0
 13 14  1  0
 14 15  1  0
 15 16  1  0
 16 17  1  0
 17 18  1  0
 18 19  1  0
 19 20  1  0
 20 21  1  0
 20 22  2  0
 17 23  1  0
 23 24  1  0
 23 25  1  0
 25 26  1  0
 25 27  1  0
 27 28  1  0
 13 29  2  0
 29 30  1  0
 30 31  1  0
 31 32  2  0
 29 33  1  0
 33 34  2  0
 34 35  1  0
 35 36  2  0
 36 37  1  0
 36 38  1  0
 38 39  2  0
  4 40  1  0
 40 41  1  0
 40 42  1  0
 42 43  1  0
 42 44  1  0
 44 45  1  0
 44  1  1  0
 32  6  1  0
 39 33  1  0
 31 10  1  0
 27 15  1  0
  1 46  1  6
  2 47  1  0
  2 48  1  0
  2 49  1  0
  4 50  1  1
  7 51  1  0
  9 52  1  0
 15 53  1  6
 17 54  1  6
 18 55  1  0
 18 56  1  0
 21 57  1  0
 21 58  1  0
 21 59  1  0
 23 60  1  6
 24 61  1  0
 25 62  1  6
 26 63  1  0
 27 64  1  1
 28 65  1  0
 32 66  1  0
 34 67  1  0
 35 68  1  0
 37 69  1  0
 38 70  1  0
 39 71  1  0
 40 72  1  6
 41 73  1  0
 42 74  1  6
 43 75  1  0
 44 76  1  1
 45 77  1  0
M  END
>  <LIG_ID>  (242) 
241

>  <_smiles>  (242) 
[H][C@@]1(C)O[C@@]([H])(OC2=CC(O)=C3C(=O)C(O[C@]4([H])O[C@]([H])(COC(C)=O)[C@]([H])(O)[C@]([H])(O)[C@@]4([H])O)=C(OC3=C2)C2=CC=C(O)C=C2)[C@]([H])(O)[C@]([H])(O)[C@@]1([H])O

>  <_name>  (242) 
Kaempferol 3-O-(6''-acetyl-galactoside) 7-O-rhamnoside

>  <_molecular_weight>  (242) 
636.555

>  <_formula>  (242) 
C29H32O16

>  <_logP>  (242) 
-1.1730000000000014

>  <_molecular_wt_calculated>  (242) 
636.5590000000016

>  <_havy_atom_count>  (242) 
45

>  <_hydrogen_acceptors>  (242) 
16

>  <_hydrogen_donors>  (242) 
8

>  <_rotatable_bonds>  (242) 
17

>  <_amide_bonds>  (242) 
0

>  <_ring_count>  (242) 
5

$$$$
Quercetin 3-O-galactoside 7-O-rhamnoside
     RDKit          3D

 73 77  0  0  0  0  0  0  0  0999 V2000
    6.8513    2.5755   -1.2625 C   0  0  0  0  0  0  0  0  0  0  0  0
    6.9716    1.0632   -1.0613 C   0  0  2  0  0  0  0  0  0  0  0  0
    5.6826    0.5629   -0.7117 O   0  0  0  0  0  0  0  0  0  0  0  0
    5.6854   -0.5789    0.1397 C   0  0  1  0  0  0  0  0  0  0  0  0
    4.4646   -1.2943   -0.0488 O   0  0  0  0  0  0  0  0  0  0  0  0
    3.1848   -0.7990    0.2483 C   0  0  0  0  0  0  0  0  0  0  0  0
    2.9750    0.4676    0.8162 C   0  0  0  0  0  0  0  0  0  0  0  0
    1.6845    0.9234    1.1127 C   0  0  0  0  0  0  0  0  0  0  0  0
    1.5950    2.1533    1.7716 O   0  0  0  0  0  0  0  0  0  0  0  0
    0.5552    0.1223    0.7672 C   0  0  0  0  0  0  0  0  0  0  0  0
   -0.7929    0.5406    0.8896 C   0  0  0  0  0  0  0  0  0  0  0  0
   -1.0626    1.7118    1.2545 O   0  0  0  0  0  0  0  0  0  0  0  0
   -1.8408   -0.3522    0.5600 C   0  0  0  0  0  0  0  0  0  0  0  0
   -3.2125   -0.0248    0.6302 O   0  0  0  0  0  0  0  0  0  0  0  0
   -3.8131    1.2460    0.8881 C   0  0  2  0  0  0  0  0  0  0  0  0
   -5.1936    1.0142    1.1404 O   0  0  0  0  0  0  0  0  0  0  0  0
   -5.9207    2.2284    1.1348 C   0  0  2  0  0  0  0  0  0  0  0  0
   -7.2698    2.0054    1.8304 C   0  0  0  0  0  0  0  0  0  0  0  0
   -7.9998    3.2011    1.8603 O   0  0  0  0  0  0  0  0  0  0  0  0
   -6.0574    2.7556   -0.3233 C   0  0  2  0  0  0  0  0  0  0  0  0
   -7.2603    2.3244   -0.9118 O   0  0  0  0  0  0  0  0  0  0  0  0
   -4.8544    2.3022   -1.1884 C   0  0  2  0  0  0  0  0  0  0  0  0
   -5.1291    1.0525   -1.7733 O   0  0  0  0  0  0  0  0  0  0  0  0
   -3.5785    2.1978   -0.3283 C   0  0  1  0  0  0  0  0  0  0  0  0
   -3.2151    3.4722    0.1408 O   0  0  0  0  0  0  0  0  0  0  0  0
   -1.4981   -1.6398    0.1051 C   0  0  0  0  0  0  0  0  0  0  0  0
   -0.2250   -1.9711   -0.0649 O   0  0  0  0  0  0  0  0  0  0  0  0
    0.7859   -1.1645    0.2238 C   0  0  0  0  0  0  0  0  0  0  0  0
    2.0857   -1.6105   -0.0247 C   0  0  0  0  0  0  0  0  0  0  0  0
   -2.5273   -2.6489   -0.2345 C   0  0  0  0  0  0  0  0  0  0  0  0
   -2.3831   -3.4190   -1.4000 C   0  0  0  0  0  0  0  0  0  0  0  0
   -3.3370   -4.3913   -1.7338 C   0  0  0  0  0  0  0  0  0  0  0  0
   -3.1989   -5.1444   -2.8984 O   0  0  0  0  0  0  0  0  0  0  0  0
   -4.4356   -4.6090   -0.8931 C   0  0  0  0  0  0  0  0  0  0  0  0
   -5.3828   -5.5746   -1.2288 O   0  0  0  0  0  0  0  0  0  0  0  0
   -4.5731   -3.8584    0.2818 C   0  0  0  0  0  0  0  0  0  0  0  0
   -3.6224   -2.8898    0.6138 C   0  0  0  0  0  0  0  0  0  0  0  0
    6.8679   -1.5284   -0.1388 C   0  0  2  0  0  0  0  0  0  0  0  0
    6.7695   -2.6861    0.6535 O   0  0  0  0  0  0  0  0  0  0  0  0
    8.2083   -0.8023    0.1361 C   0  0  2  0  0  0  0  0  0  0  0  0
    8.7203   -1.1121    1.4101 O   0  0  0  0  0  0  0  0  0  0  0  0
    8.0787    0.7320   -0.0291 C   0  0  1  0  0  0  0  0  0  0  0  0
    9.3068    1.2680   -0.4517 O   0  0  0  0  0  0  0  0  0  0  0  0
    7.8035    2.9996   -1.6460 H   0  0  0  0  0  0  0  0  0  0  0  0
    6.5891    3.0728   -0.3042 H   0  0  0  0  0  0  0  0  0  0  0  0
    6.0536    2.7932   -2.0043 H   0  0  0  0  0  0  0  0  0  0  0  0
    7.2595    0.6212   -2.0415 H   0  0  0  0  0  0  0  0  0  0  0  0
    5.7396   -0.2475    1.2010 H   0  0  0  0  0  0  0  0  0  0  0  0
    3.8132    1.1031    1.0673 H   0  0  0  0  0  0  0  0  0  0  0  0
    0.8034    2.4525    2.3213 H   0  0  0  0  0  0  0  0  0  0  0  0
   -3.3724    1.6666    1.8183 H   0  0  0  0  0  0  0  0  0  0  0  0
   -5.3858    2.9967    1.7447 H   0  0  0  0  0  0  0  0  0  0  0  0
   -7.0843    1.6601    2.8722 H   0  0  0  0  0  0  0  0  0  0  0  0
   -7.8490    1.2148    1.3023 H   0  0  0  0  0  0  0  0  0  0  0  0
   -8.8578    2.9883    2.3113 H   0  0  0  0  0  0  0  0  0  0  0  0
   -6.0594    3.8704   -0.2715 H   0  0  0  0  0  0  0  0  0  0  0  0
   -7.4059    2.8915   -1.7138 H   0  0  0  0  0  0  0  0  0  0  0  0
   -4.6990    3.0569   -1.9950 H   0  0  0  0  0  0  0  0  0  0  0  0
   -4.4775    0.9309   -2.5127 H   0  0  0  0  0  0  0  0  0  0  0  0
   -2.7529    1.7990   -0.9632 H   0  0  0  0  0  0  0  0  0  0  0  0
   -2.8191    3.9608   -0.6275 H   0  0  0  0  0  0  0  0  0  0  0  0
    2.2422   -2.5950   -0.4490 H   0  0  0  0  0  0  0  0  0  0  0  0
   -1.5368   -3.2556   -2.0566 H   0  0  0  0  0  0  0  0  0  0  0  0
   -2.4152   -5.0104   -3.5267 H   0  0  0  0  0  0  0  0  0  0  0  0
   -6.1873   -5.7552   -0.6396 H   0  0  0  0  0  0  0  0  0  0  0  0
   -5.4131   -4.0304    0.9428 H   0  0  0  0  0  0  0  0  0  0  0  0
   -3.7331   -2.3450    1.5428 H   0  0  0  0  0  0  0  0  0  0  0  0
    6.8385   -1.8102   -1.2191 H   0  0  0  0  0  0  0  0  0  0  0  0
    6.1382   -3.3003    0.1953 H   0  0  0  0  0  0  0  0  0  0  0  0
    8.9409   -1.1777   -0.6129 H   0  0  0  0  0  0  0  0  0  0  0  0
    8.0458   -0.8303    2.0822 H   0  0  0  0  0  0  0  0  0  0  0  0
    7.7844    1.1973    0.9419 H   0  0  0  0  0  0  0  0  0  0  0  0
    9.9078    1.2608    0.3386 H   0  0  0  0  0  0  0  0  0  0  0  0
  1  2  1  0
  2  3  1  0
  3  4  1  0
  4  5  1  0
  5  6  1  0
  6  7  2  0
  7  8  1  0
  8  9  1  0
  8 10  2  0
 10 11  1  0
 11 12  2  0
 11 13  1  0
 13 14  1  0
 14 15  1  0
 15 16  1  0
 16 17  1  0
 17 18  1  0
 18 19  1  0
 17 20  1  0
 20 21  1  0
 20 22  1  0
 22 23  1  0
 22 24  1  0
 24 25  1  0
 13 26  2  0
 26 27  1  0
 27 28  1  0
 28 29  2  0
 26 30  1  0
 30 31  2  0
 31 32  1  0
 32 33  1  0
 32 34  2  0
 34 35  1  0
 34 36  1  0
 36 37  2  0
  4 38  1  0
 38 39  1  0
 38 40  1  0
 40 41  1  0
 40 42  1  0
 42 43  1  0
 42  2  1  0
 29  6  1  0
 37 30  1  0
 28 10  1  0
 24 15  1  0
  1 44  1  0
  1 45  1  0
  1 46  1  0
  2 47  1  6
  4 48  1  1
  7 49  1  0
  9 50  1  0
 15 51  1  1
 17 52  1  1
 18 53  1  0
 18 54  1  0
 19 55  1  0
 20 56  1  1
 21 57  1  0
 22 58  1  6
 23 59  1  0
 24 60  1  6
 25 61  1  0
 29 62  1  0
 31 63  1  0
 33 64  1  0
 35 65  1  0
 36 66  1  0
 37 67  1  0
 38 68  1  6
 39 69  1  0
 40 70  1  6
 41 71  1  0
 42 72  1  1
 43 73  1  0
M  END
>  <LIG_ID>  (243) 
242

>  <_smiles>  (243) 
C[C@@H]1O[C@@H](OC2=CC(O)=C3C(=O)C(O[C@@H]4O[C@H](CO)[C@H](O)[C@H](O)[C@H]4O)=C(OC3=C2)C2=CC(O)=C(O)C=C2)[C@H](O)[C@H](O)[C@H]1O

>  <_name>  (243) 
Quercetin 3-O-galactoside 7-O-rhamnoside

>  <_molecular_weight>  (243) 
610.518

>  <_formula>  (243) 
C27H30O16

>  <_logP>  (243) 
-2.038200000000001

>  <_molecular_wt_calculated>  (243) 
610.5210000000015

>  <_havy_atom_count>  (243) 
43

>  <_hydrogen_acceptors>  (243) 
16

>  <_hydrogen_donors>  (243) 
10

>  <_rotatable_bonds>  (243) 
17

>  <_amide_bonds>  (243) 
0

>  <_ring_count>  (243) 
5

$$$$
Quercetin 3-O-(6''-acetyl-galactoside) 7-O-rhamnoside
     RDKit          3D

 78 82  0  0  0  0  0  0  0  0999 V2000
    6.1853   -3.2890   -1.3731 C   0  0  0  0  0  0  0  0  0  0  0  0
    6.9733   -1.9837   -1.2283 C   0  0  0  0  0  0  0  0  0  0  0  0
    6.1124   -0.9243   -0.8136 O   0  0  0  0  0  0  0  0  0  0  0  0
    6.0808   -0.7755    0.5959 C   0  0  0  0  0  0  0  0  0  0  0  0
    5.0341    0.1282    0.9537 O   0  0  0  0  0  0  0  0  0  0  0  0
    3.6629   -0.1007    0.7582 C   0  0  0  0  0  0  0  0  0  0  0  0
    2.7716    0.9130    1.1037 C   0  0  0  0  0  0  0  0  0  0  0  0
    1.3945    0.7392    0.9527 C   0  0  0  0  0  0  0  0  0  0  0  0
    0.8726   -0.4722    0.4315 C   0  0  0  0  0  0  0  0  0  0  0  0
    1.7893   -1.4887    0.0298 C   0  0  0  0  0  0  0  0  0  0  0  0
    1.4099   -2.6837   -0.5894 O   0  0  0  0  0  0  0  0  0  0  0  0
    3.1624   -1.3004    0.2295 C   0  0  0  0  0  0  0  0  0  0  0  0
   -0.5367   -0.5876    0.3689 C   0  0  0  0  0  0  0  0  0  0  0  0
   -1.0982   -1.6544    0.0074 O   0  0  0  0  0  0  0  0  0  0  0  0
   -1.3437    0.4973    0.7292 C   0  0  0  0  0  0  0  0  0  0  0  0
   -2.7311    0.3980    0.5625 O   0  0  0  0  0  0  0  0  0  0  0  0
   -3.4552    1.1812   -0.3907 C   0  0  0  0  0  0  0  0  0  0  0  0
   -4.8484    1.0836   -0.1207 O   0  0  0  0  0  0  0  0  0  0  0  0
   -5.3904   -0.1202   -0.6347 C   0  0  0  0  0  0  0  0  0  0  0  0
   -6.7781   -0.3370   -0.0132 C   0  0  0  0  0  0  0  0  0  0  0  0
   -7.3777   -1.5403   -0.4924 O   0  0  0  0  0  0  0  0  0  0  0  0
   -6.9850   -2.8166   -0.0746 C   0  0  0  0  0  0  0  0  0  0  0  0
   -7.6323   -4.0162   -0.6775 C   0  0  0  0  0  0  0  0  0  0  0  0
   -6.1262   -2.9628    0.8372 O   0  0  0  0  0  0  0  0  0  0  0  0
   -5.4659   -0.0574   -2.1853 C   0  0  0  0  0  0  0  0  0  0  0  0
   -5.3797   -1.3656   -2.6946 O   0  0  0  0  0  0  0  0  0  0  0  0
   -4.3288    0.8324   -2.7526 C   0  0  0  0  0  0  0  0  0  0  0  0
   -4.0236    0.5044   -4.0868 O   0  0  0  0  0  0  0  0  0  0  0  0
   -3.0824    0.7639   -1.8454 C   0  0  0  0  0  0  0  0  0  0  0  0
   -2.0367    1.5580   -2.3492 O   0  0  0  0  0  0  0  0  0  0  0  0
   -0.7363    1.6578    1.2471 C   0  0  0  0  0  0  0  0  0  0  0  0
    0.5873    1.7262    1.3233 O   0  0  0  0  0  0  0  0  0  0  0  0
   -1.5196    2.8118    1.7409 C   0  0  0  0  0  0  0  0  0  0  0  0
   -1.0944    4.1154    1.4437 C   0  0  0  0  0  0  0  0  0  0  0  0
   -1.8180    5.2174    1.9061 C   0  0  0  0  0  0  0  0  0  0  0  0
   -2.9668    5.0341    2.6820 C   0  0  0  0  0  0  0  0  0  0  0  0
   -3.6713    6.1530    3.1251 O   0  0  0  0  0  0  0  0  0  0  0  0
   -3.3899    3.7338    3.0048 C   0  0  0  0  0  0  0  0  0  0  0  0
   -4.5290    3.5435    3.7856 O   0  0  0  0  0  0  0  0  0  0  0  0
   -2.6611    2.6290    2.5414 C   0  0  0  0  0  0  0  0  0  0  0  0
    7.4365   -0.2316    1.1135 C   0  0  0  0  0  0  0  0  0  0  0  0
    7.4751    1.1711    1.0179 O   0  0  0  0  0  0  0  0  0  0  0  0
    8.6190   -0.8176    0.3032 C   0  0  0  0  0  0  0  0  0  0  0  0
    9.7685   -0.9379    1.1045 O   0  0  0  0  0  0  0  0  0  0  0  0
    8.2340   -2.1691   -0.3304 C   0  0  0  0  0  0  0  0  0  0  0  0
    9.3039   -2.7145   -1.0633 O   0  0  0  0  0  0  0  0  0  0  0  0
    6.8311   -4.0764   -1.8169 H   0  0  0  0  0  0  0  0  0  0  0  0
    5.3133   -3.1301   -2.0423 H   0  0  0  0  0  0  0  0  0  0  0  0
    5.8187   -3.6427   -0.3869 H   0  0  0  0  0  0  0  0  0  0  0  0
    7.3220   -1.7111   -2.2483 H   0  0  0  0  0  0  0  0  0  0  0  0
    5.8769   -1.7521    1.0933 H   0  0  0  0  0  0  0  0  0  0  0  0
    3.1529    1.8429    1.5084 H   0  0  0  0  0  0  0  0  0  0  0  0
    0.5226   -2.8449   -1.0403 H   0  0  0  0  0  0  0  0  0  0  0  0
    3.8347   -2.0943   -0.0596 H   0  0  0  0  0  0  0  0  0  0  0  0
   -3.1932    2.2509   -0.2571 H   0  0  0  0  0  0  0  0  0  0  0  0
   -4.7534   -0.9830   -0.3264 H   0  0  0  0  0  0  0  0  0  0  0  0
   -7.4382    0.5173   -0.2755 H   0  0  0  0  0  0  0  0  0  0  0  0
   -6.6989   -0.3679    1.0957 H   0  0  0  0  0  0  0  0  0  0  0  0
   -7.9985   -3.7754   -1.6975 H   0  0  0  0  0  0  0  0  0  0  0  0
   -8.4894   -4.3303   -0.0466 H   0  0  0  0  0  0  0  0  0  0  0  0
   -6.9020   -4.8499   -0.7471 H   0  0  0  0  0  0  0  0  0  0  0  0
   -6.4366    0.4042   -2.4896 H   0  0  0  0  0  0  0  0  0  0  0  0
   -5.8659   -1.3747   -3.5602 H   0  0  0  0  0  0  0  0  0  0  0  0
   -4.6917    1.8848   -2.7469 H   0  0  0  0  0  0  0  0  0  0  0  0
   -3.5269   -0.3553   -4.0851 H   0  0  0  0  0  0  0  0  0  0  0  0
   -2.7290   -0.2908   -1.8339 H   0  0  0  0  0  0  0  0  0  0  0  0
   -2.3745    2.4886   -2.4258 H   0  0  0  0  0  0  0  0  0  0  0  0
   -0.2101    4.2798    0.8400 H   0  0  0  0  0  0  0  0  0  0  0  0
   -1.4857    6.2179    1.6597 H   0  0  0  0  0  0  0  0  0  0  0  0
   -4.5085    6.0727    3.6897 H   0  0  0  0  0  0  0  0  0  0  0  0
   -4.8559    2.6161    4.0304 H   0  0  0  0  0  0  0  0  0  0  0  0
   -2.9809    1.6318    2.8163 H   0  0  0  0  0  0  0  0  0  0  0  0
    7.5376   -0.5398    2.1818 H   0  0  0  0  0  0  0  0  0  0  0  0
    7.0540    1.5325    1.8414 H   0  0  0  0  0  0  0  0  0  0  0  0
    8.8609   -0.1158   -0.5268 H   0  0  0  0  0  0  0  0  0  0  0  0
    9.5814   -1.6214    1.8001 H   0  0  0  0  0  0  0  0  0  0  0  0
    7.9969   -2.8782    0.4943 H   0  0  0  0  0  0  0  0  0  0  0  0
    9.5697   -2.0507   -1.7522 H   0  0  0  0  0  0  0  0  0  0  0  0
  1  2  1  0
  2  3  1  0
  3  4  1  0
  4  5  1  0
  5  6  1  0
  6  7  2  0
  7  8  1  0
  8  9  2  0
  9 10  1  0
 10 11  1  0
 10 12  2  0
  9 13  1  0
 13 14  2  0
 13 15  1  0
 15 16  1  0
 16 17  1  0
 17 18  1  0
 18 19  1  0
 19 20  1  0
 20 21  1  0
 21 22  1  0
 22 23  1  0
 22 24  2  0
 19 25  1  0
 25 26  1  0
 25 27  1  0
 27 28  1  0
 27 29  1  0
 29 30  1  0
 15 31  2  0
 31 32  1  0
 31 33  1  0
 33 34  2  0
 34 35  1  0
 35 36  2  0
 36 37  1  0
 36 38  1  0
 38 39  1  0
 38 40  2  0
  4 41  1  0
 41 42  1  0
 41 43  1  0
 43 44  1  0
 43 45  1  0
 45 46  1  0
 45  2  1  0
 12  6  1  0
 29 17  1  0
 40 33  1  0
 32  8  1  0
  1 47  1  0
  1 48  1  0
  1 49  1  0
  2 50  1  0
  4 51  1  0
  7 52  1  0
 11 53  1  0
 12 54  1  0
 17 55  1  0
 19 56  1  0
 20 57  1  0
 20 58  1  0
 23 59  1  0
 23 60  1  0
 23 61  1  0
 25 62  1  0
 26 63  1  0
 27 64  1  0
 28 65  1  0
 29 66  1  0
 30 67  1  0
 34 68  1  0
 35 69  1  0
 37 70  1  0
 39 71  1  0
 40 72  1  0
 41 73  1  0
 42 74  1  0
 43 75  1  0
 44 76  1  0
 45 77  1  0
 46 78  1  0
M  END
>  <LIG_ID>  (244) 
243

>  <_smiles>  (244) 
CC1OC(OC2=CC3=C(C(O)=C2)C(=O)C(OC2OC(COC(C)=O)C(O)C(O)C2O)=C(O3)C2=CC=C(O)C(O)=C2)C(O)C(O)C1O

>  <_name>  (244) 
Quercetin 3-O-(6''-acetyl-galactoside) 7-O-rhamnoside

>  <_molecular_weight>  (244) 
652.554

>  <_formula>  (244) 
C29H32O17

>  <_logP>  (244) 
-1.4674000000000011

>  <_molecular_wt_calculated>  (244) 
652.5580000000016

>  <_havy_atom_count>  (244) 
46

>  <_hydrogen_acceptors>  (244) 
17

>  <_hydrogen_donors>  (244) 
9

>  <_rotatable_bonds>  (244) 
18

>  <_amide_bonds>  (244) 
0

>  <_ring_count>  (244) 
5

$$$$
Kaempferol 3-O-(2''-rhamnosyl-galactoside) 7-O-rhamnoside
     RDKit          3D

 92 97  0  0  0  0  0  0  0  0999 V2000
    8.8198    0.4341    1.6591 C   0  0  2  0  0  0  0  0  0  0  0  0
   10.0523   -0.1837    2.3190 C   0  0  0  0  0  0  0  0  0  0  0  0
    8.1320   -0.5717    0.9370 O   0  0  0  0  0  0  0  0  0  0  0  0
    6.8224   -0.1459    0.5804 C   0  0  1  0  0  0  0  0  0  0  0  0
    5.9703   -0.2587    1.7256 O   0  0  0  0  0  0  0  0  0  0  0  0
    4.5659   -0.2389    1.7188 C   0  0  0  0  0  0  0  0  0  0  0  0
    3.9078   -0.0906    2.9425 C   0  0  0  0  0  0  0  0  0  0  0  0
    2.5080   -0.0588    3.0135 C   0  0  0  0  0  0  0  0  0  0  0  0
    1.8926    0.0949    4.2566 O   0  0  0  0  0  0  0  0  0  0  0  0
    1.7413   -0.1841    1.8304 C   0  0  0  0  0  0  0  0  0  0  0  0
    0.3300   -0.1646    1.8197 C   0  0  0  0  0  0  0  0  0  0  0  0
   -0.3082   -0.0012    2.8931 O   0  0  0  0  0  0  0  0  0  0  0  0
   -0.3611   -0.3149    0.5974 C   0  0  0  0  0  0  0  0  0  0  0  0
   -1.7654   -0.3732    0.5012 O   0  0  0  0  0  0  0  0  0  0  0  0
   -2.6673   -0.8011    1.5243 C   0  0  2  0  0  0  0  0  0  0  0  0
   -2.2515   -2.0543    2.0671 O   0  0  0  0  0  0  0  0  0  0  0  0
   -2.7125   -3.1853    1.3382 C   0  0  2  0  0  0  0  0  0  0  0  0
   -2.0148   -3.2984   -0.0370 C   0  0  0  0  0  0  0  0  0  0  0  0
   -2.1383   -4.6010   -0.5382 O   0  0  0  0  0  0  0  0  0  0  0  0
   -4.2735   -3.2681    1.3094 C   0  0  2  0  0  0  0  0  0  0  0  0
   -4.7421   -3.7130    0.0589 O   0  0  0  0  0  0  0  0  0  0  0  0
   -4.9157   -1.9123    1.6518 C   0  0  2  0  0  0  0  0  0  0  0  0
   -6.2551   -1.8976    1.2251 O   0  0  0  0  0  0  0  0  0  0  0  0
   -4.1192   -0.7871    0.9822 C   0  0  1  0  0  0  0  0  0  0  0  0
   -4.7121    0.4678    1.2903 O   0  0  0  0  0  0  0  0  0  0  0  0
   -5.3290    1.0456    0.1558 C   0  0  2  0  0  0  0  0  0  0  0  0
   -4.3223    1.4634   -0.7547 O   0  0  0  0  0  0  0  0  0  0  0  0
   -4.8623    1.9952   -1.9565 C   0  0  1  0  0  0  0  0  0  0  0  0
   -5.4781    0.9071   -2.8545 C   0  0  0  0  0  0  0  0  0  0  0  0
   -5.8070    3.2032   -1.7042 C   0  0  2  0  0  0  0  0  0  0  0  0
   -5.0613    4.3613   -1.4136 O   0  0  0  0  0  0  0  0  0  0  0  0
   -6.8328    2.9319   -0.5837 C   0  0  1  0  0  0  0  0  0  0  0  0
   -7.8725    2.1285   -1.0847 O   0  0  0  0  0  0  0  0  0  0  0  0
   -6.1582    2.2500    0.6231 C   0  0  1  0  0  0  0  0  0  0  0  0
   -7.1245    1.8230    1.5489 O   0  0  0  0  0  0  0  0  0  0  0  0
    0.3948   -0.4418   -0.5837 C   0  0  0  0  0  0  0  0  0  0  0  0
    1.7219   -0.4629   -0.5317 O   0  0  0  0  0  0  0  0  0  0  0  0
    2.4092   -0.3431    0.5963 C   0  0  0  0  0  0  0  0  0  0  0  0
    3.8058   -0.3747    0.5452 C   0  0  0  0  0  0  0  0  0  0  0  0
   -0.2508   -0.6008   -1.9029 C   0  0  0  0  0  0  0  0  0  0  0  0
    0.1887   -1.6139   -2.7695 C   0  0  0  0  0  0  0  0  0  0  0  0
   -0.4003   -1.7723   -4.0272 C   0  0  0  0  0  0  0  0  0  0  0  0
   -1.4202   -0.9053   -4.4403 C   0  0  0  0  0  0  0  0  0  0  0  0
   -2.0114   -1.0495   -5.6933 O   0  0  0  0  0  0  0  0  0  0  0  0
   -1.8467    0.1186   -3.5894 C   0  0  0  0  0  0  0  0  0  0  0  0
   -1.2698    0.2706   -2.3249 C   0  0  0  0  0  0  0  0  0  0  0  0
    6.7954    1.3108    0.0123 C   0  0  2  0  0  0  0  0  0  0  0  0
    5.8513    1.4585   -1.0195 O   0  0  0  0  0  0  0  0  0  0  0  0
    8.1991    1.7579   -0.4496 C   0  0  2  0  0  0  0  0  0  0  0  0
    8.6166    0.9777   -1.5440 O   0  0  0  0  0  0  0  0  0  0  0  0
    9.2200    1.5934    0.7053 C   0  0  1  0  0  0  0  0  0  0  0  0
    9.3685    2.7937    1.4242 O   0  0  0  0  0  0  0  0  0  0  0  0
    8.1783    0.8228    2.4856 H   0  0  0  0  0  0  0  0  0  0  0  0
    9.7390   -0.9799    3.0272 H   0  0  0  0  0  0  0  0  0  0  0  0
   10.6144    0.5903    2.8839 H   0  0  0  0  0  0  0  0  0  0  0  0
   10.7200   -0.6335    1.5532 H   0  0  0  0  0  0  0  0  0  0  0  0
    6.4801   -0.8586   -0.1984 H   0  0  0  0  0  0  0  0  0  0  0  0
    4.4932    0.0066    3.8485 H   0  0  0  0  0  0  0  0  0  0  0  0
    2.4305    0.1850    5.1108 H   0  0  0  0  0  0  0  0  0  0  0  0
   -2.6342   -0.0639    2.3536 H   0  0  0  0  0  0  0  0  0  0  0  0
   -2.3671   -4.0727    1.9134 H   0  0  0  0  0  0  0  0  0  0  0  0
   -0.9340   -3.0677    0.0888 H   0  0  0  0  0  0  0  0  0  0  0  0
   -2.4498   -2.5760   -0.7614 H   0  0  0  0  0  0  0  0  0  0  0  0
   -1.6819   -4.6014   -1.4197 H   0  0  0  0  0  0  0  0  0  0  0  0
   -4.6069   -3.9819    2.1014 H   0  0  0  0  0  0  0  0  0  0  0  0
   -4.7158   -4.7053    0.0762 H   0  0  0  0  0  0  0  0  0  0  0  0
   -4.8739   -1.7743    2.7600 H   0  0  0  0  0  0  0  0  0  0  0  0
   -6.7276   -1.2191    1.7748 H   0  0  0  0  0  0  0  0  0  0  0  0
   -4.0836   -0.9994   -0.1155 H   0  0  0  0  0  0  0  0  0  0  0  0
   -6.0184    0.3016   -0.3066 H   0  0  0  0  0  0  0  0  0  0  0  0
   -3.9986    2.3904   -2.5345 H   0  0  0  0  0  0  0  0  0  0  0  0
   -5.6026    1.2980   -3.8867 H   0  0  0  0  0  0  0  0  0  0  0  0
   -4.8054    0.0246   -2.8928 H   0  0  0  0  0  0  0  0  0  0  0  0
   -6.4714    0.5762   -2.4940 H   0  0  0  0  0  0  0  0  0  0  0  0
   -6.3665    3.4158   -2.6419 H   0  0  0  0  0  0  0  0  0  0  0  0
   -4.4670    4.1592   -0.6452 H   0  0  0  0  0  0  0  0  0  0  0  0
   -7.2522    3.9125   -0.2541 H   0  0  0  0  0  0  0  0  0  0  0  0
   -8.6710    2.2969   -0.5192 H   0  0  0  0  0  0  0  0  0  0  0  0
   -5.4702    2.9738    1.1194 H   0  0  0  0  0  0  0  0  0  0  0  0
   -7.4674    2.6384    1.9998 H   0  0  0  0  0  0  0  0  0  0  0  0
    4.2796   -0.5189   -0.4140 H   0  0  0  0  0  0  0  0  0  0  0  0
    0.9777   -2.2911   -2.4655 H   0  0  0  0  0  0  0  0  0  0  0  0
   -0.0603   -2.5652   -4.6811 H   0  0  0  0  0  0  0  0  0  0  0  0
   -1.7239   -1.7806   -6.3333 H   0  0  0  0  0  0  0  0  0  0  0  0
   -2.6191    0.8024   -3.9146 H   0  0  0  0  0  0  0  0  0  0  0  0
   -1.6011    1.0810   -1.6878 H   0  0  0  0  0  0  0  0  0  0  0  0
    6.4872    1.9963    0.8323 H   0  0  0  0  0  0  0  0  0  0  0  0
    6.0737    0.8075   -1.7344 H   0  0  0  0  0  0  0  0  0  0  0  0
    8.1605    2.8343   -0.7448 H   0  0  0  0  0  0  0  0  0  0  0  0
    8.3205    1.4449   -2.3685 H   0  0  0  0  0  0  0  0  0  0  0  0
   10.2087    1.3675    0.2463 H   0  0  0  0  0  0  0  0  0  0  0  0
    8.4771    3.0450    1.7817 H   0  0  0  0  0  0  0  0  0  0  0  0
  1  2  1  0
  1  3  1  0
  3  4  1  0
  4  5  1  0
  5  6  1  0
  6  7  2  0
  7  8  1  0
  8  9  1  0
  8 10  2  0
 10 11  1  0
 11 12  2  0
 11 13  1  0
 13 14  1  0
 14 15  1  0
 15 16  1  0
 16 17  1  0
 17 18  1  0
 18 19  1  0
 17 20  1  0
 20 21  1  0
 20 22  1  0
 22 23  1  0
 22 24  1  0
 24 25  1  0
 25 26  1  0
 26 27  1  0
 27 28  1  0
 28 29  1  0
 28 30  1  0
 30 31  1  0
 30 32  1  0
 32 33  1  0
 32 34  1  0
 34 35  1  0
 13 36  2  0
 36 37  1  0
 37 38  1  0
 38 39  2  0
 36 40  1  0
 40 41  2  0
 41 42  1  0
 42 43  2  0
 43 44  1  0
 43 45  1  0
 45 46  2  0
  4 47  1  0
 47 48  1  0
 47 49  1  0
 49 50  1  0
 49 51  1  0
 51 52  1  0
 51  1  1  0
 39  6  1  0
 46 40  1  0
 38 10  1  0
 24 15  1  0
 34 26  1  0
  1 53  1  1
  2 54  1  0
  2 55  1  0
  2 56  1  0
  4 57  1  6
  7 58  1  0
  9 59  1  0
 15 60  1  1
 17 61  1  1
 18 62  1  0
 18 63  1  0
 19 64  1  0
 20 65  1  1
 21 66  1  0
 22 67  1  1
 23 68  1  0
 24 69  1  6
 26 70  1  6
 28 71  1  6
 29 72  1  0
 29 73  1  0
 29 74  1  0
 30 75  1  6
 31 76  1  0
 32 77  1  1
 33 78  1  0
 34 79  1  1
 35 80  1  0
 39 81  1  0
 41 82  1  0
 42 83  1  0
 44 84  1  0
 45 85  1  0
 46 86  1  0
 47 87  1  1
 48 88  1  0
 49 89  1  6
 50 90  1  0
 51 91  1  6
 52 92  1  0
M  END
>  <LIG_ID>  (245) 
244

>  <_smiles>  (245) 
[H][C@@]1(C)O[C@@]([H])(OC2=CC(O)=C3C(=O)C(O[C@]4([H])O[C@]([H])(CO)[C@]([H])(O)[C@]([H])(O)[C@@]4([H])O[C@]4([H])O[C@@]([H])(C)[C@]([H])(O)[C@@]([H])(O)[C@@]4([H])O)=C(OC3=C2)C2=CC=C(O)C=C2)[C@]([H])(O)[C@]([H])(O)[C@@]1([H])O

>  <_name>  (245) 
Kaempferol 3-O-(2''-rhamnosyl-galactoside) 7-O-rhamnoside

>  <_molecular_weight>  (245) 
740.659

>  <_formula>  (245) 
C33H40O19

>  <_logP>  (245) 
-2.8919999999999964

>  <_molecular_wt_calculated>  (245) 
740.6640000000017

>  <_havy_atom_count>  (245) 
52

>  <_hydrogen_acceptors>  (245) 
19

>  <_hydrogen_donors>  (245) 
11

>  <_rotatable_bonds>  (245) 
21

>  <_amide_bonds>  (245) 
0

>  <_ring_count>  (245) 
6

$$$$
Kaempferol 3-O-(2''-rhamnosyl-6''-acetyl-galactoside) 7-O-rhamnoside
     RDKit          3D

 95100  0  0  0  0  0  0  0  0999 V2000
    7.2821   -0.2044    0.2329 C   0  0  2  0  0  0  0  0  0  0  0  0
    6.9017   -0.6609    1.6409 C   0  0  0  0  0  0  0  0  0  0  0  0
    6.4156   -0.8233   -0.6981 O   0  0  0  0  0  0  0  0  0  0  0  0
    6.4923   -0.1987   -1.9758 C   0  0  1  0  0  0  0  0  0  0  0  0
    5.6840    0.9803   -1.9949 O   0  0  0  0  0  0  0  0  0  0  0  0
    4.2981    1.0136   -1.7738 C   0  0  0  0  0  0  0  0  0  0  0  0
    3.6650    2.2594   -1.7462 C   0  0  0  0  0  0  0  0  0  0  0  0
    2.2850    2.3649   -1.5215 C   0  0  0  0  0  0  0  0  0  0  0  0
    1.6911    3.6275   -1.4975 O   0  0  0  0  0  0  0  0  0  0  0  0
    1.5159    1.1955   -1.3214 C   0  0  0  0  0  0  0  0  0  0  0  0
    0.1278    1.2182   -1.0783 C   0  0  0  0  0  0  0  0  0  0  0  0
   -0.5090    2.3057   -1.0258 O   0  0  0  0  0  0  0  0  0  0  0  0
   -0.5593    0.0160   -0.8821 C   0  0  0  0  0  0  0  0  0  0  0  0
   -1.9272    0.0406   -0.5995 O   0  0  0  0  0  0  0  0  0  0  0  0
   -2.4225    0.0681    0.7364 C   0  0  2  0  0  0  0  0  0  0  0  0
   -1.9889   -1.0974    1.4140 O   0  0  0  0  0  0  0  0  0  0  0  0
   -2.2488   -1.0071    2.8074 C   0  0  2  0  0  0  0  0  0  0  0  0
   -1.8501   -2.3455    3.4420 C   0  0  0  0  0  0  0  0  0  0  0  0
   -0.4777   -2.6134    3.1683 O   0  0  0  0  0  0  0  0  0  0  0  0
    0.1592   -3.7842    3.5851 C   0  0  0  0  0  0  0  0  0  0  0  0
    1.5019   -3.9749    3.2801 O   0  0  0  0  0  0  0  0  0  0  0  0
   -0.4707   -4.6676    4.2279 O   0  0  0  0  0  0  0  0  0  0  0  0
   -3.7339   -0.6007    3.0964 C   0  0  2  0  0  0  0  0  0  0  0  0
   -4.3037   -1.2887    4.1857 O   0  0  0  0  0  0  0  0  0  0  0  0
   -4.5970   -0.7170    1.8231 C   0  0  2  0  0  0  0  0  0  0  0  0
   -4.6716   -2.0630    1.4204 O   0  0  0  0  0  0  0  0  0  0  0  0
   -3.9736    0.1375    0.6946 C   0  0  1  0  0  0  0  0  0  0  0  0
   -4.3938    1.4821    0.8671 O   0  0  0  0  0  0  0  0  0  0  0  0
   -4.4870    2.1784   -0.3671 C   0  0  2  0  0  0  0  0  0  0  0  0
   -4.1107    3.5346   -0.1581 O   0  0  0  0  0  0  0  0  0  0  0  0
   -5.1666    4.2783    0.4225 C   0  0  1  0  0  0  0  0  0  0  0  0
   -4.6126    5.6056    0.9396 C   0  0  0  0  0  0  0  0  0  0  0  0
   -6.2944    4.5110   -0.6166 C   0  0  2  0  0  0  0  0  0  0  0  0
   -7.5194    4.6297    0.0620 O   0  0  0  0  0  0  0  0  0  0  0  0
   -6.3614    3.3464   -1.6342 C   0  0  1  0  0  0  0  0  0  0  0  0
   -5.5223    3.6367   -2.7254 O   0  0  0  0  0  0  0  0  0  0  0  0
   -5.9186    2.0306   -0.9645 C   0  0  1  0  0  0  0  0  0  0  0  0
   -5.9449    0.9755   -1.8916 O   0  0  0  0  0  0  0  0  0  0  0  0
    0.1496   -1.1997   -0.9586 C   0  0  0  0  0  0  0  0  0  0  0  0
    1.4612   -1.1825   -1.1777 O   0  0  0  0  0  0  0  0  0  0  0  0
    2.1568   -0.0646   -1.3568 C   0  0  0  0  0  0  0  0  0  0  0  0
    3.5335   -0.1500   -1.5822 C   0  0  0  0  0  0  0  0  0  0  0  0
   -0.5123   -2.5116   -0.7707 C   0  0  0  0  0  0  0  0  0  0  0  0
   -1.7770   -2.7854   -1.3240 C   0  0  0  0  0  0  0  0  0  0  0  0
   -2.3975   -4.0165   -1.0933 C   0  0  0  0  0  0  0  0  0  0  0  0
   -1.7552   -4.9956   -0.3246 C   0  0  0  0  0  0  0  0  0  0  0  0
   -2.3672   -6.2231   -0.0818 O   0  0  0  0  0  0  0  0  0  0  0  0
   -0.4855   -4.7411    0.2014 C   0  0  0  0  0  0  0  0  0  0  0  0
    0.1364   -3.5100   -0.0256 C   0  0  0  0  0  0  0  0  0  0  0  0
    7.9472    0.1607   -2.4025 C   0  0  2  0  0  0  0  0  0  0  0  0
    8.1232    0.0494   -3.7936 O   0  0  0  0  0  0  0  0  0  0  0  0
    8.9945   -0.6715   -1.6276 C   0  0  2  0  0  0  0  0  0  0  0  0
    8.9967   -2.0148   -2.0511 O   0  0  0  0  0  0  0  0  0  0  0  0
    8.7558   -0.5710   -0.0932 C   0  0  1  0  0  0  0  0  0  0  0  0
    9.6321    0.3611    0.4917 O   0  0  0  0  0  0  0  0  0  0  0  0
    7.1463    0.9032    0.2081 H   0  0  0  0  0  0  0  0  0  0  0  0
    6.9752   -1.7663    1.7255 H   0  0  0  0  0  0  0  0  0  0  0  0
    7.5725   -0.1919    2.3920 H   0  0  0  0  0  0  0  0  0  0  0  0
    5.8564   -0.3577    1.8629 H   0  0  0  0  0  0  0  0  0  0  0  0
    6.0810   -0.9172   -2.7173 H   0  0  0  0  0  0  0  0  0  0  0  0
    4.2544    3.1553   -1.8968 H   0  0  0  0  0  0  0  0  0  0  0  0
    2.2308    4.4734   -1.6389 H   0  0  0  0  0  0  0  0  0  0  0  0
   -2.0134    0.9788    1.2361 H   0  0  0  0  0  0  0  0  0  0  0  0
   -1.5787   -0.2351    3.2522 H   0  0  0  0  0  0  0  0  0  0  0  0
   -2.4750   -3.1616    3.0167 H   0  0  0  0  0  0  0  0  0  0  0  0
   -1.9951   -2.3033    4.5436 H   0  0  0  0  0  0  0  0  0  0  0  0
    1.9847   -4.8186    3.5651 H   0  0  0  0  0  0  0  0  0  0  0  0
   -3.7277    0.4763    3.3776 H   0  0  0  0  0  0  0  0  0  0  0  0
   -4.5188   -2.2120    3.8943 H   0  0  0  0  0  0  0  0  0  0  0  0
   -5.6223   -0.3414    2.0538 H   0  0  0  0  0  0  0  0  0  0  0  0
   -5.4557   -2.1401    0.8163 H   0  0  0  0  0  0  0  0  0  0  0  0
   -4.3425   -0.2900   -0.2684 H   0  0  0  0  0  0  0  0  0  0  0  0
   -3.7586    1.7912   -1.1171 H   0  0  0  0  0  0  0  0  0  0  0  0
   -5.5769    3.7369    1.3086 H   0  0  0  0  0  0  0  0  0  0  0  0
   -4.1467    6.1820    0.1118 H   0  0  0  0  0  0  0  0  0  0  0  0
   -5.4261    6.2111    1.3933 H   0  0  0  0  0  0  0  0  0  0  0  0
   -3.8410    5.4130    1.7150 H   0  0  0  0  0  0  0  0  0  0  0  0
   -6.0941    5.4549   -1.1792 H   0  0  0  0  0  0  0  0  0  0  0  0
   -8.1514    5.0782   -0.5588 H   0  0  0  0  0  0  0  0  0  0  0  0
   -7.4123    3.2401   -1.9946 H   0  0  0  0  0  0  0  0  0  0  0  0
   -5.8345    3.0826   -3.4878 H   0  0  0  0  0  0  0  0  0  0  0  0
   -6.6304    1.8075   -0.1338 H   0  0  0  0  0  0  0  0  0  0  0  0
   -6.8999    0.7491   -2.0415 H   0  0  0  0  0  0  0  0  0  0  0  0
    3.9934   -1.1283   -1.6075 H   0  0  0  0  0  0  0  0  0  0  0  0
   -2.2828   -2.0545   -1.9413 H   0  0  0  0  0  0  0  0  0  0  0  0
   -3.3756   -4.2095   -1.5151 H   0  0  0  0  0  0  0  0  0  0  0  0
   -3.2869   -6.4378   -0.4489 H   0  0  0  0  0  0  0  0  0  0  0  0
    0.0173   -5.4955    0.7931 H   0  0  0  0  0  0  0  0  0  0  0  0
    1.1140   -3.3267    0.4034 H   0  0  0  0  0  0  0  0  0  0  0  0
    8.1286    1.2265   -2.1382 H   0  0  0  0  0  0  0  0  0  0  0  0
    7.9582   -0.8954   -4.0483 H   0  0  0  0  0  0  0  0  0  0  0  0
   10.0003   -0.2589   -1.8635 H   0  0  0  0  0  0  0  0  0  0  0  0
    8.1235   -2.4169   -1.8063 H   0  0  0  0  0  0  0  0  0  0  0  0
    8.9913   -1.5632    0.3525 H   0  0  0  0  0  0  0  0  0  0  0  0
    9.4721    1.2390    0.0558 H   0  0  0  0  0  0  0  0  0  0  0  0
  1  2  1  0
  1  3  1  0
  3  4  1  0
  4  5  1  0
  5  6  1  0
  6  7  2  0
  7  8  1  0
  8  9  1  0
  8 10  2  0
 10 11  1  0
 11 12  2  0
 11 13  1  0
 13 14  1  0
 14 15  1  0
 15 16  1  0
 16 17  1  0
 17 18  1  0
 18 19  1  0
 19 20  1  0
 20 21  1  0
 20 22  2  0
 17 23  1  0
 23 24  1  0
 23 25  1  0
 25 26  1  0
 25 27  1  0
 27 28  1  0
 28 29  1  0
 29 30  1  0
 30 31  1  0
 31 32  1  0
 31 33  1  0
 33 34  1  0
 33 35  1  0
 35 36  1  0
 35 37  1  0
 37 38  1  0
 13 39  2  0
 39 40  1  0
 40 41  1  0
 41 42  2  0
 39 43  1  0
 43 44  2  0
 44 45  1  0
 45 46  2  0
 46 47  1  0
 46 48  1  0
 48 49  2  0
  4 50  1  0
 50 51  1  0
 50 52  1  0
 52 53  1  0
 52 54  1  0
 54 55  1  0
 54  1  1  0
 42  6  1  0
 49 43  1  0
 41 10  1  0
 27 15  1  0
 37 29  1  0
  1 56  1  1
  2 57  1  0
  2 58  1  0
  2 59  1  0
  4 60  1  6
  7 61  1  0
  9 62  1  0
 15 63  1  1
 17 64  1  1
 18 65  1  0
 18 66  1  0
 21 67  1  0
 23 68  1  1
 24 69  1  0
 25 70  1  1
 26 71  1  0
 27 72  1  6
 29 73  1  6
 31 74  1  1
 32 75  1  0
 32 76  1  0
 32 77  1  0
 33 78  1  6
 34 79  1  0
 35 80  1  6
 36 81  1  0
 37 82  1  1
 38 83  1  0
 42 84  1  0
 44 85  1  0
 45 86  1  0
 47 87  1  0
 48 88  1  0
 49 89  1  0
 50 90  1  1
 51 91  1  0
 52 92  1  1
 53 93  1  0
 54 94  1  1
 55 95  1  0
M  END
>  <LIG_ID>  (246) 
245

>  <_smiles>  (246) 
[H][C@@]1(C)O[C@@]([H])(OC2=CC(O)=C3C(=O)C(O[C@]4([H])O[C@]([H])(COC(O)=O)[C@]([H])(O)[C@]([H])(O)[C@@]4([H])O[C@]4([H])O[C@@]([H])(C)[C@]([H])(O)[C@@]([H])(O)[C@@]4([H])O)=C(OC3=C2)C2=CC=C(O)C=C2)[C@]([H])(O)[C@]([H])(O)[C@@]1([H])O

>  <_name>  (246) 
Kaempferol 3-O-(2''-rhamnosyl-6''-acetyl-galactoside) 7-O-rhamnoside

>  <_molecular_weight>  (246) 
784.669

>  <_formula>  (246) 
C34H40O21

>  <_logP>  (246) 
-2.189699999999996

>  <_molecular_wt_calculated>  (246) 
784.6730000000016

>  <_havy_atom_count>  (246) 
55

>  <_hydrogen_acceptors>  (246) 
21

>  <_hydrogen_donors>  (246) 
11

>  <_rotatable_bonds>  (246) 
21

>  <_amide_bonds>  (246) 
0

>  <_ring_count>  (246) 
6

$$$$
6,8-Dihydroxykaempferol
     RDKit          3D

 33 35  0  0  0  0  0  0  0  0999 V2000
    6.1908    1.3177    0.3562 O   0  0  0  0  0  0  0  0  0  0  0  0
    4.8641    0.8934    0.3428 C   0  0  0  0  0  0  0  0  0  0  0  0
    3.8683    1.7231    0.8665 C   0  0  0  0  0  0  0  0  0  0  0  0
    2.5326    1.3099    0.8602 C   0  0  0  0  0  0  0  0  0  0  0  0
    2.1788    0.0524    0.3430 C   0  0  0  0  0  0  0  0  0  0  0  0
    3.1829   -0.7694   -0.2013 C   0  0  0  0  0  0  0  0  0  0  0  0
    4.5177   -0.3531   -0.1944 C   0  0  0  0  0  0  0  0  0  0  0  0
    0.7547   -0.3527    0.3246 C   0  0  0  0  0  0  0  0  0  0  0  0
    0.3433   -1.6598    0.6428 C   0  0  0  0  0  0  0  0  0  0  0  0
    1.2797   -2.6184    1.0389 O   0  0  0  0  0  0  0  0  0  0  0  0
   -1.0230   -1.9724    0.5844 C   0  0  0  0  0  0  0  0  0  0  0  0
   -1.4005   -3.1445    0.8568 O   0  0  0  0  0  0  0  0  0  0  0  0
   -1.9551   -0.9728    0.2308 C   0  0  0  0  0  0  0  0  0  0  0  0
   -1.4580    0.3214   -0.0486 C   0  0  0  0  0  0  0  0  0  0  0  0
   -0.1529    0.5661    0.0109 O   0  0  0  0  0  0  0  0  0  0  0  0
   -2.3374    1.3599   -0.3944 C   0  0  0  0  0  0  0  0  0  0  0  0
   -1.8514    2.6400   -0.6684 O   0  0  0  0  0  0  0  0  0  0  0  0
   -3.7171    1.1161   -0.4677 C   0  0  0  0  0  0  0  0  0  0  0  0
   -4.6003    2.1413   -0.8112 O   0  0  0  0  0  0  0  0  0  0  0  0
   -4.2210   -0.1659   -0.1952 C   0  0  0  0  0  0  0  0  0  0  0  0
   -5.5930   -0.4145   -0.2677 O   0  0  0  0  0  0  0  0  0  0  0  0
   -3.3479   -1.2118    0.1541 C   0  0  0  0  0  0  0  0  0  0  0  0
   -3.8625   -2.4828    0.4238 O   0  0  0  0  0  0  0  0  0  0  0  0
    6.9351    0.7401   -0.0171 H   0  0  0  0  0  0  0  0  0  0  0  0
    4.1294    2.6901    1.2773 H   0  0  0  0  0  0  0  0  0  0  0  0
    1.7755    1.9676    1.2700 H   0  0  0  0  0  0  0  0  0  0  0  0
    2.9354   -1.7205   -0.6549 H   0  0  0  0  0  0  0  0  0  0  0  0
    5.2804   -0.9961   -0.6150 H   0  0  0  0  0  0  0  0  0  0  0  0
    1.0167   -3.5654    1.2839 H   0  0  0  0  0  0  0  0  0  0  0  0
   -0.8647    2.8657   -0.6276 H   0  0  0  0  0  0  0  0  0  0  0  0
   -4.2855    3.0819   -1.0166 H   0  0  0  0  0  0  0  0  0  0  0  0
   -6.2625    0.3043   -0.5145 H   0  0  0  0  0  0  0  0  0  0  0  0
   -4.8527   -2.6909    0.3789 H   0  0  0  0  0  0  0  0  0  0  0  0
  1  2  1  0
  2  3  2  0
  3  4  1  0
  4  5  2  0
  5  6  1  0
  6  7  2  0
  5  8  1  0
  8  9  2  0
  9 10  1  0
  9 11  1  0
 11 12  2  0
 11 13  1  0
 13 14  2  0
 14 15  1  0
 14 16  1  0
 16 17  1  0
 16 18  2  0
 18 19  1  0
 18 20  1  0
 20 21  1  0
 20 22  2  0
 22 23  1  0
  7  2  1  0
 15  8  1  0
 22 13  1  0
  1 24  1  0
  3 25  1  0
  4 26  1  0
  6 27  1  0
  7 28  1  0
 10 29  1  0
 17 30  1  0
 19 31  1  0
 21 32  1  0
 23 33  1  0
M  END
>  <LIG_ID>  (247) 
246

>  <_smiles>  (247) 
OC1=CC=C(C=C1)C1=C(O)C(=O)C2=C(O1)C(O)=C(O)C(O)=C2O

>  <_name>  (247) 
6,8-Dihydroxykaempferol

>  <_molecular_weight>  (247) 
318.235

>  <_formula>  (247) 
C15H10O8

>  <_logP>  (247) 
1.6936000000000004

>  <_molecular_wt_calculated>  (247) 
318.23699999999985

>  <_havy_atom_count>  (247) 
23

>  <_hydrogen_acceptors>  (247) 
8

>  <_hydrogen_donors>  (247) 
6

>  <_rotatable_bonds>  (247) 
7

>  <_amide_bonds>  (247) 
0

>  <_ring_count>  (247) 
3

$$$$
Isorhamnetin 3-O-galactoside
     RDKit          3D

 56 59  0  0  0  0  0  0  0  0999 V2000
   -2.3296   -0.1829    1.5501 C   0  0  1  0  0  0  0  0  0  0  0  0
   -1.8207   -0.3310    2.9913 C   0  0  0  0  0  0  0  0  0  0  0  0
   -2.8722   -0.1879    3.9091 O   0  0  0  0  0  0  0  0  0  0  0  0
   -1.2129   -0.2101    0.6811 O   0  0  0  0  0  0  0  0  0  0  0  0
   -1.5937    0.1102   -0.6461 C   0  0  1  0  0  0  0  0  0  0  0  0
   -0.4287    0.1524   -1.4673 O   0  0  0  0  0  0  0  0  0  0  0  0
    0.6169    1.0512   -1.2317 C   0  0  0  0  0  0  0  0  0  0  0  0
    1.6401    0.7582   -0.3105 C   0  0  0  0  0  0  0  0  0  0  0  0
    2.6029    1.6467   -0.0957 O   0  0  0  0  0  0  0  0  0  0  0  0
    2.6672    2.8200   -0.7145 C   0  0  0  0  0  0  0  0  0  0  0  0
    3.7450    3.6632   -0.4338 C   0  0  0  0  0  0  0  0  0  0  0  0
    3.8646    4.8955   -1.0773 C   0  0  0  0  0  0  0  0  0  0  0  0
    4.9483    5.7310   -0.8158 O   0  0  0  0  0  0  0  0  0  0  0  0
    2.8875    5.3001   -1.9855 C   0  0  0  0  0  0  0  0  0  0  0  0
    1.7757    4.4942   -2.2602 C   0  0  0  0  0  0  0  0  0  0  0  0
    0.8126    5.0349   -3.1175 O   0  0  0  0  0  0  0  0  0  0  0  0
    1.6708    3.2079   -1.6493 C   0  0  0  0  0  0  0  0  0  0  0  0
    0.6501    2.2663   -1.9242 C   0  0  0  0  0  0  0  0  0  0  0  0
   -0.2300    2.4787   -2.7985 O   0  0  0  0  0  0  0  0  0  0  0  0
    1.6765   -0.5106    0.4516 C   0  0  0  0  0  0  0  0  0  0  0  0
    1.3910   -1.7435   -0.1616 C   0  0  0  0  0  0  0  0  0  0  0  0
    1.3658   -2.9327    0.5939 C   0  0  0  0  0  0  0  0  0  0  0  0
    1.0523   -4.1734    0.0161 O   0  0  0  0  0  0  0  0  0  0  0  0
    0.7022   -4.3625   -1.3511 C   0  0  0  0  0  0  0  0  0  0  0  0
    1.6602   -2.8793    1.9683 C   0  0  0  0  0  0  0  0  0  0  0  0
    1.6436   -4.0315    2.7542 O   0  0  0  0  0  0  0  0  0  0  0  0
    1.9770   -1.6579    2.5693 C   0  0  0  0  0  0  0  0  0  0  0  0
    1.9900   -0.4823    1.8177 C   0  0  0  0  0  0  0  0  0  0  0  0
   -2.5468   -0.9586   -1.2086 C   0  0  2  0  0  0  0  0  0  0  0  0
   -2.9556   -0.5777   -2.4971 O   0  0  0  0  0  0  0  0  0  0  0  0
   -3.7729   -1.1064   -0.2863 C   0  0  1  0  0  0  0  0  0  0  0  0
   -4.5589   -2.1988   -0.6895 O   0  0  0  0  0  0  0  0  0  0  0  0
   -3.3211   -1.3060    1.1716 C   0  0  1  0  0  0  0  0  0  0  0  0
   -2.6979   -2.5588    1.3208 O   0  0  0  0  0  0  0  0  0  0  0  0
   -2.8451    0.8049    1.4880 H   0  0  0  0  0  0  0  0  0  0  0  0
   -1.2934   -1.3040    3.1284 H   0  0  0  0  0  0  0  0  0  0  0  0
   -1.0772    0.4705    3.1896 H   0  0  0  0  0  0  0  0  0  0  0  0
   -3.2252   -1.0984    4.0872 H   0  0  0  0  0  0  0  0  0  0  0  0
   -2.0827    1.1122   -0.6836 H   0  0  0  0  0  0  0  0  0  0  0  0
    4.4995    3.3509    0.2779 H   0  0  0  0  0  0  0  0  0  0  0  0
    5.6743    5.4678   -0.1596 H   0  0  0  0  0  0  0  0  0  0  0  0
    2.9769    6.2682   -2.4633 H   0  0  0  0  0  0  0  0  0  0  0  0
   -0.1382    4.7091   -3.1982 H   0  0  0  0  0  0  0  0  0  0  0  0
    1.1919   -1.7721   -1.2236 H   0  0  0  0  0  0  0  0  0  0  0  0
    0.4902   -5.4371   -1.5254 H   0  0  0  0  0  0  0  0  0  0  0  0
    1.5441   -4.0558   -2.0070 H   0  0  0  0  0  0  0  0  0  0  0  0
   -0.2083   -3.7764   -1.5969 H   0  0  0  0  0  0  0  0  0  0  0  0
    1.4196   -4.9424    2.3722 H   0  0  0  0  0  0  0  0  0  0  0  0
    2.2050   -1.6189    3.6269 H   0  0  0  0  0  0  0  0  0  0  0  0
    2.2180    0.4556    2.3094 H   0  0  0  0  0  0  0  0  0  0  0  0
   -1.9955   -1.9285   -1.2502 H   0  0  0  0  0  0  0  0  0  0  0  0
   -3.2080   -1.4089   -2.9777 H   0  0  0  0  0  0  0  0  0  0  0  0
   -4.3783   -0.1688   -0.3326 H   0  0  0  0  0  0  0  0  0  0  0  0
   -5.1319   -1.8837   -1.4364 H   0  0  0  0  0  0  0  0  0  0  0  0
   -4.2167   -1.2375    1.8332 H   0  0  0  0  0  0  0  0  0  0  0  0
   -3.4184   -3.2253    1.4687 H   0  0  0  0  0  0  0  0  0  0  0  0
  1  2  1  0
  2  3  1  0
  1  4  1  0
  4  5  1  0
  5  6  1  0
  6  7  1  0
  7  8  2  0
  8  9  1  0
  9 10  1  0
 10 11  2  0
 11 12  1  0
 12 13  1  0
 12 14  2  0
 14 15  1  0
 15 16  1  0
 15 17  2  0
 17 18  1  0
 18 19  2  0
  8 20  1  0
 20 21  2  0
 21 22  1  0
 22 23  1  0
 23 24  1  0
 22 25  2  0
 25 26  1  0
 25 27  1  0
 27 28  2  0
  5 29  1  0
 29 30  1  0
 29 31  1  0
 31 32  1  0
 31 33  1  0
 33 34  1  0
 33  1  1  0
 18  7  1  0
 28 20  1  0
 17 10  1  0
  1 35  1  1
  2 36  1  0
  2 37  1  0
  3 38  1  0
  5 39  1  1
 11 40  1  0
 13 41  1  0
 14 42  1  0
 16 43  1  0
 21 44  1  0
 24 45  1  0
 24 46  1  0
 24 47  1  0
 26 48  1  0
 27 49  1  0
 28 50  1  0
 29 51  1  6
 30 52  1  0
 31 53  1  1
 32 54  1  0
 33 55  1  1
 34 56  1  0
M  END
>  <LIG_ID>  (248) 
247

>  <_smiles>  (248) 
[H][C@]1(CO)O[C@@]([H])(OC2=C(OC3=CC(O)=CC(O)=C3C2=O)C2=CC(OC)=C(O)C=C2)[C@]([H])(O)[C@@]([H])(O)[C@@]1([H])O

>  <_name>  (248) 
Isorhamnetin 3-O-galactoside

>  <_molecular_weight>  (248) 
478.403

>  <_formula>  (248) 
C22H22O12

>  <_logP>  (248) 
-0.23590000000000022

>  <_molecular_wt_calculated>  (248) 
478.4059999999999

>  <_havy_atom_count>  (248) 
34

>  <_hydrogen_acceptors>  (248) 
12

>  <_hydrogen_donors>  (248) 
7

>  <_rotatable_bonds>  (248) 
13

>  <_amide_bonds>  (248) 
0

>  <_ring_count>  (248) 
4

$$$$
Quercetin 3-O-rhamnosyl-rhamnosyl-glucoside
     RDKit          3D

 93 98  0  0  0  0  0  0  0  0999 V2000
    7.4461   -1.3371    1.5811 C   0  0  0  0  0  0  0  0  0  0  0  0
    6.9479   -0.3000    0.5727 C   0  0  2  0  0  0  0  0  0  0  0  0
    6.5232   -0.9885   -0.5943 O   0  0  0  0  0  0  0  0  0  0  0  0
    5.9278   -0.1125   -1.5392 C   0  0  1  0  0  0  0  0  0  0  0  0
    4.7818    0.5098   -0.9723 O   0  0  0  0  0  0  0  0  0  0  0  0
    3.7793    0.7858   -1.9400 C   0  0  1  0  0  0  0  0  0  0  0  0
    2.7278   -0.3570   -1.9120 C   0  0  2  0  0  0  0  0  0  0  0  0
    1.8708   -0.4539   -3.1862 C   0  0  0  0  0  0  0  0  0  0  0  0
    1.9436   -0.3508   -0.7271 O   0  0  0  0  0  0  0  0  0  0  0  0
    1.2579    0.8775   -0.5286 C   0  0  1  0  0  0  0  0  0  0  0  0
    0.4748    0.7814    0.6462 O   0  0  0  0  0  0  0  0  0  0  0  0
   -0.6545   -0.0355    0.4072 C   0  0  0  0  0  0  0  0  0  0  0  0
   -1.4472   -0.2472    1.7049 C   0  0  1  0  0  0  0  0  0  0  0  0
   -2.6701   -0.8681    1.3433 O   0  0  0  0  0  0  0  0  0  0  0  0
   -3.4252   -1.2391    2.4786 C   0  0  1  0  0  0  0  0  0  0  0  0
   -4.7483   -1.5870    2.0708 O   0  0  0  0  0  0  0  0  0  0  0  0
   -5.5734   -0.7012    1.3678 C   0  0  0  0  0  0  0  0  0  0  0  0
   -5.4463   -0.5281   -0.0240 C   0  0  0  0  0  0  0  0  0  0  0  0
   -6.1934    0.3777   -0.6435 O   0  0  0  0  0  0  0  0  0  0  0  0
   -7.1105    1.1139   -0.0265 C   0  0  0  0  0  0  0  0  0  0  0  0
   -7.8221    2.0565   -0.7725 C   0  0  0  0  0  0  0  0  0  0  0  0
   -8.7871    2.8586   -0.1619 C   0  0  0  0  0  0  0  0  0  0  0  0
   -9.4855    3.8138   -0.8973 O   0  0  0  0  0  0  0  0  0  0  0  0
   -9.0633    2.6982    1.1952 C   0  0  0  0  0  0  0  0  0  0  0  0
   -8.3919    1.7378    1.9619 C   0  0  0  0  0  0  0  0  0  0  0  0
   -8.8086    1.5962    3.2889 O   0  0  0  0  0  0  0  0  0  0  0  0
   -7.3618    0.9531    1.3619 C   0  0  0  0  0  0  0  0  0  0  0  0
   -6.5339    0.0428    2.0615 C   0  0  0  0  0  0  0  0  0  0  0  0
   -6.6068   -0.0930    3.3107 O   0  0  0  0  0  0  0  0  0  0  0  0
   -4.4719   -1.2998   -0.8268 C   0  0  0  0  0  0  0  0  0  0  0  0
   -3.6703   -0.6336   -1.7674 C   0  0  0  0  0  0  0  0  0  0  0  0
   -2.6772   -1.3263   -2.4752 C   0  0  0  0  0  0  0  0  0  0  0  0
   -1.8569   -0.6486   -3.3758 O   0  0  0  0  0  0  0  0  0  0  0  0
   -2.5037   -2.7045   -2.2652 C   0  0  0  0  0  0  0  0  0  0  0  0
   -1.5217   -3.4202   -2.9492 O   0  0  0  0  0  0  0  0  0  0  0  0
   -3.3253   -3.3766   -1.3548 C   0  0  0  0  0  0  0  0  0  0  0  0
   -4.3052   -2.6826   -0.6409 C   0  0  0  0  0  0  0  0  0  0  0  0
   -2.7818   -2.4612    3.1727 C   0  0  2  0  0  0  0  0  0  0  0  0
   -3.0920   -2.4181    4.5423 O   0  0  0  0  0  0  0  0  0  0  0  0
   -1.2413   -2.4913    2.9724 C   0  0  1  0  0  0  0  0  0  0  0  0
   -0.8888   -3.3182    1.8876 O   0  0  0  0  0  0  0  0  0  0  0  0
   -0.6771   -1.0602    2.8032 C   0  0  1  0  0  0  0  0  0  0  0  0
    0.7206   -1.0614    2.6313 O   0  0  0  0  0  0  0  0  0  0  0  0
    2.2620    2.0234   -0.3440 C   0  0  2  0  0  0  0  0  0  0  0  0
    1.5703    3.2234   -0.1118 O   0  0  0  0  0  0  0  0  0  0  0  0
    3.1524    2.1479   -1.5945 C   0  0  2  0  0  0  0  0  0  0  0  0
    2.4111    2.6253   -2.6897 O   0  0  0  0  0  0  0  0  0  0  0  0
    6.9458    0.9470   -2.0275 C   0  0  2  0  0  0  0  0  0  0  0  0
    7.9351    0.3630   -2.8417 O   0  0  0  0  0  0  0  0  0  0  0  0
    7.5706    1.6988   -0.8346 C   0  0  2  0  0  0  0  0  0  0  0  0
    8.6403    2.4984   -1.2689 O   0  0  0  0  0  0  0  0  0  0  0  0
    8.0635    0.7160    0.2411 C   0  0  1  0  0  0  0  0  0  0  0  0
    8.4105    1.4266    1.4029 O   0  0  0  0  0  0  0  0  0  0  0  0
    8.3168   -1.8920    1.1704 H   0  0  0  0  0  0  0  0  0  0  0  0
    6.6354   -2.0636    1.8020 H   0  0  0  0  0  0  0  0  0  0  0  0
    7.7422   -0.8476    2.5332 H   0  0  0  0  0  0  0  0  0  0  0  0
    6.0921    0.2280    1.0532 H   0  0  0  0  0  0  0  0  0  0  0  0
    5.6513   -0.7497   -2.4121 H   0  0  0  0  0  0  0  0  0  0  0  0
    4.1998    0.8745   -2.9711 H   0  0  0  0  0  0  0  0  0  0  0  0
    3.3019   -1.3089   -1.8901 H   0  0  0  0  0  0  0  0  0  0  0  0
    1.1245   -1.2683   -3.0720 H   0  0  0  0  0  0  0  0  0  0  0  0
    1.3331    0.4869   -3.4113 H   0  0  0  0  0  0  0  0  0  0  0  0
    2.5181   -0.6945   -4.0563 H   0  0  0  0  0  0  0  0  0  0  0  0
    0.6041    1.1251   -1.3981 H   0  0  0  0  0  0  0  0  0  0  0  0
   -1.3273    0.4692   -0.3231 H   0  0  0  0  0  0  0  0  0  0  0  0
   -0.3695   -1.0281   -0.0102 H   0  0  0  0  0  0  0  0  0  0  0  0
   -1.6712    0.7680    2.1072 H   0  0  0  0  0  0  0  0  0  0  0  0
   -3.4982   -0.3837    3.1924 H   0  0  0  0  0  0  0  0  0  0  0  0
   -7.6144    2.1723   -1.8293 H   0  0  0  0  0  0  0  0  0  0  0  0
   -9.3109    3.9536   -1.8857 H   0  0  0  0  0  0  0  0  0  0  0  0
   -9.8314    3.3079    1.6554 H   0  0  0  0  0  0  0  0  0  0  0  0
   -8.6276    0.7891    3.8660 H   0  0  0  0  0  0  0  0  0  0  0  0
   -3.7872    0.4326   -1.9199 H   0  0  0  0  0  0  0  0  0  0  0  0
   -1.9508    0.3479   -3.5336 H   0  0  0  0  0  0  0  0  0  0  0  0
   -0.9009   -2.9786   -3.6167 H   0  0  0  0  0  0  0  0  0  0  0  0
   -3.1983   -4.4397   -1.1943 H   0  0  0  0  0  0  0  0  0  0  0  0
   -4.9290   -3.2245    0.0585 H   0  0  0  0  0  0  0  0  0  0  0  0
   -3.2145   -3.3902    2.7291 H   0  0  0  0  0  0  0  0  0  0  0  0
   -2.9581   -3.3358    4.8973 H   0  0  0  0  0  0  0  0  0  0  0  0
   -0.7709   -2.9350    3.8775 H   0  0  0  0  0  0  0  0  0  0  0  0
   -1.3781   -3.0049    1.0843 H   0  0  0  0  0  0  0  0  0  0  0  0
   -0.8690   -0.5422    3.7694 H   0  0  0  0  0  0  0  0  0  0  0  0
    0.9417   -1.6670    1.8780 H   0  0  0  0  0  0  0  0  0  0  0  0
    2.9020    1.7867    0.5391 H   0  0  0  0  0  0  0  0  0  0  0  0
    2.2353    3.8723    0.2383 H   0  0  0  0  0  0  0  0  0  0  0  0
    3.9829    2.8612   -1.3748 H   0  0  0  0  0  0  0  0  0  0  0  0
    2.3504    3.6115   -2.5933 H   0  0  0  0  0  0  0  0  0  0  0  0
    6.4093    1.6926   -2.6527 H   0  0  0  0  0  0  0  0  0  0  0  0
    8.3519   -0.3825   -2.3375 H   0  0  0  0  0  0  0  0  0  0  0  0
    6.7861    2.3473   -0.3755 H   0  0  0  0  0  0  0  0  0  0  0  0
    8.2429    3.2696   -1.7519 H   0  0  0  0  0  0  0  0  0  0  0  0
    8.9523    0.1596   -0.1408 H   0  0  0  0  0  0  0  0  0  0  0  0
    9.3131    1.8101    1.2480 H   0  0  0  0  0  0  0  0  0  0  0  0
  1  2  1  0
  2  3  1  0
  3  4  1  0
  4  5  1  0
  5  6  1  0
  6  7  1  0
  7  8  1  0
  7  9  1  0
  9 10  1  0
 10 11  1  0
 11 12  1  0
 12 13  1  0
 13 14  1  0
 14 15  1  0
 15 16  1  0
 16 17  1  0
 17 18  2  0
 18 19  1  0
 19 20  1  0
 20 21  2  0
 21 22  1  0
 22 23  1  0
 22 24  2  0
 24 25  1  0
 25 26  1  0
 25 27  2  0
 27 28  1  0
 28 29  2  0
 18 30  1  0
 30 31  2  0
 31 32  1  0
 32 33  1  0
 32 34  2  0
 34 35  1  0
 34 36  1  0
 36 37  2  0
 15 38  1  0
 38 39  1  0
 38 40  1  0
 40 41  1  0
 40 42  1  0
 42 43  1  0
 10 44  1  0
 44 45  1  0
 44 46  1  0
 46 47  1  0
  4 48  1  0
 48 49  1  0
 48 50  1  0
 50 51  1  0
 50 52  1  0
 52 53  1  0
 52  2  1  0
 46  6  1  0
 42 13  1  0
 28 17  1  0
 37 30  1  0
 27 20  1  0
  1 54  1  0
  1 55  1  0
  1 56  1  0
  2 57  1  1
  4 58  1  6
  6 59  1  6
  7 60  1  1
  8 61  1  0
  8 62  1  0
  8 63  1  0
 10 64  1  6
 12 65  1  0
 12 66  1  0
 13 67  1  1
 15 68  1  1
 21 69  1  0
 23 70  1  0
 24 71  1  0
 26 72  1  0
 31 73  1  0
 33 74  1  0
 35 75  1  0
 36 76  1  0
 37 77  1  0
 38 78  1  6
 39 79  1  0
 40 80  1  1
 41 81  1  0
 42 82  1  1
 43 83  1  0
 44 84  1  1
 45 85  1  0
 46 86  1  1
 47 87  1  0
 48 88  1  6
 49 89  1  0
 50 90  1  1
 51 91  1  0
 52 92  1  6
 53 93  1  0
M  END
>  <LIG_ID>  (249) 
248

>  <_smiles>  (249) 
C[C@@H]1O[C@@H](O[C@H]2[C@H](C)O[C@@H](OC[C@H]3O[C@@H](OC4=C(OC5=CC(O)=CC(O)=C5C4=O)C4=CC(O)=C(O)C=C4)[C@H](O)[C@@H](O)[C@H]3O)[C@H](O)[C@@H]2O)[C@H](O)[C@H](O)[C@H]1O

>  <_name>  (249) 
Quercetin 3-O-rhamnosyl-rhamnosyl-glucoside

>  <_molecular_weight>  (249) 
756.659

>  <_formula>  (249) 
C33H40O20

>  <_logP>  (249) 
-2.8352999999999997

>  <_molecular_wt_calculated>  (249) 
756.6630000000018

>  <_havy_atom_count>  (249) 
53

>  <_hydrogen_acceptors>  (249) 
20

>  <_hydrogen_donors>  (249) 
12

>  <_rotatable_bonds>  (249) 
22

>  <_amide_bonds>  (249) 
0

>  <_ring_count>  (249) 
6

$$$$
Kaempferol 3-O-rhamnosyl-rhamnosyl-glucoside
     RDKit          3D

 92 97  0  0  0  0  0  0  0  0999 V2000
    2.7054   -2.3433    2.4049 C   0  0  2  0  0  0  0  0  0  0  0  0
    1.7718   -3.0736    3.3699 C   0  0  0  0  0  0  0  0  0  0  0  0
    2.3028   -2.6224    1.0775 O   0  0  0  0  0  0  0  0  0  0  0  0
    2.9205   -1.7288    0.1541 C   0  0  1  0  0  0  0  0  0  0  0  0
    2.2643   -0.4730    0.1654 O   0  0  0  0  0  0  0  0  0  0  0  0
    0.9640   -0.5833   -0.3770 C   0  0  0  0  0  0  0  0  0  0  0  0
    0.3128    0.8066   -0.4595 C   0  0  1  0  0  0  0  0  0  0  0  0
   -0.9523    0.6804   -1.1065 O   0  0  0  0  0  0  0  0  0  0  0  0
   -2.0878    0.9792   -0.3082 C   0  0  1  0  0  0  0  0  0  0  0  0
   -3.2279    0.4293   -0.9710 O   0  0  0  0  0  0  0  0  0  0  0  0
   -4.5471    0.8338   -0.7262 C   0  0  0  0  0  0  0  0  0  0  0  0
   -5.4631   -0.0681   -0.1590 C   0  0  0  0  0  0  0  0  0  0  0  0
   -6.6881    0.3423    0.1453 O   0  0  0  0  0  0  0  0  0  0  0  0
   -7.1302    1.5697   -0.1007 C   0  0  0  0  0  0  0  0  0  0  0  0
   -8.4299    1.9001    0.2900 C   0  0  0  0  0  0  0  0  0  0  0  0
   -8.9332    3.1780    0.0619 C   0  0  0  0  0  0  0  0  0  0  0  0
  -10.2254    3.4919    0.4775 O   0  0  0  0  0  0  0  0  0  0  0  0
   -8.1428    4.1291   -0.5875 C   0  0  0  0  0  0  0  0  0  0  0  0
   -6.8483    3.8184   -1.0223 C   0  0  0  0  0  0  0  0  0  0  0  0
   -6.1773    4.8161   -1.7360 O   0  0  0  0  0  0  0  0  0  0  0  0
   -6.3024    2.5285   -0.7426 C   0  0  0  0  0  0  0  0  0  0  0  0
   -4.9721    2.1364   -1.0299 C   0  0  0  0  0  0  0  0  0  0  0  0
   -4.1475    2.9348   -1.5449 O   0  0  0  0  0  0  0  0  0  0  0  0
   -5.0876   -1.4627    0.1673 C   0  0  0  0  0  0  0  0  0  0  0  0
   -4.3360   -2.2487   -0.7254 C   0  0  0  0  0  0  0  0  0  0  0  0
   -3.9842   -3.5591   -0.3890 C   0  0  0  0  0  0  0  0  0  0  0  0
   -4.3903   -4.1049    0.8355 C   0  0  0  0  0  0  0  0  0  0  0  0
   -4.0426   -5.4083    1.1828 O   0  0  0  0  0  0  0  0  0  0  0  0
   -5.1557   -3.3360    1.7172 C   0  0  0  0  0  0  0  0  0  0  0  0
   -5.5088   -2.0251    1.3836 C   0  0  0  0  0  0  0  0  0  0  0  0
   -1.9761    0.3784    1.1160 C   0  0  2  0  0  0  0  0  0  0  0  0
   -3.1440    0.6068    1.8654 O   0  0  0  0  0  0  0  0  0  0  0  0
   -0.7428    0.9234    1.8738 C   0  0  1  0  0  0  0  0  0  0  0  0
   -0.1616   -0.1206    2.6141 O   0  0  0  0  0  0  0  0  0  0  0  0
    0.2955    1.5411    0.9131 C   0  0  2  0  0  0  0  0  0  0  0  0
   -0.0065    2.9005    0.7173 O   0  0  0  0  0  0  0  0  0  0  0  0
    4.4391   -1.5102    0.4349 C   0  0  2  0  0  0  0  0  0  0  0  0
    5.1774   -1.4620   -0.7794 O   0  0  0  0  0  0  0  0  0  0  0  0
    5.2798   -0.1418   -1.2852 C   0  0  2  0  0  0  0  0  0  0  0  0
    4.0268    0.2424   -1.8309 O   0  0  0  0  0  0  0  0  0  0  0  0
    4.0239    1.5745   -2.3234 C   0  0  1  0  0  0  0  0  0  0  0  0
    4.0311    2.6201   -1.1944 C   0  0  0  0  0  0  0  0  0  0  0  0
    5.1029    1.8089   -3.4108 C   0  0  2  0  0  0  0  0  0  0  0  0
    4.7021    1.1509   -4.5868 O   0  0  0  0  0  0  0  0  0  0  0  0
    6.4863    1.2853   -2.9764 C   0  0  1  0  0  0  0  0  0  0  0  0
    7.0555    2.1701   -2.0436 O   0  0  0  0  0  0  0  0  0  0  0  0
    6.3589   -0.1276   -2.3818 C   0  0  1  0  0  0  0  0  0  0  0  0
    7.5978   -0.5299   -1.8544 O   0  0  0  0  0  0  0  0  0  0  0  0
    4.9870   -2.6572    1.2986 C   0  0  2  0  0  0  0  0  0  0  0  0
    4.9101   -3.8607    0.5753 O   0  0  0  0  0  0  0  0  0  0  0  0
    4.1786   -2.7761    2.6171 C   0  0  1  0  0  0  0  0  0  0  0  0
    4.7529   -1.9629    3.6088 O   0  0  0  0  0  0  0  0  0  0  0  0
    2.5973   -1.2527    2.6188 H   0  0  0  0  0  0  0  0  0  0  0  0
    1.8055   -4.1695    3.1901 H   0  0  0  0  0  0  0  0  0  0  0  0
    0.7284   -2.7240    3.2203 H   0  0  0  0  0  0  0  0  0  0  0  0
    2.0671   -2.8664    4.4206 H   0  0  0  0  0  0  0  0  0  0  0  0
    2.8461   -2.1986   -0.8544 H   0  0  0  0  0  0  0  0  0  0  0  0
    0.3343   -1.2538    0.2464 H   0  0  0  0  0  0  0  0  0  0  0  0
    1.0042   -0.9973   -1.4109 H   0  0  0  0  0  0  0  0  0  0  0  0
    0.9585    1.4070   -1.1370 H   0  0  0  0  0  0  0  0  0  0  0  0
   -2.1967    2.0827   -0.2445 H   0  0  0  0  0  0  0  0  0  0  0  0
   -9.0485    1.1610    0.7844 H   0  0  0  0  0  0  0  0  0  0  0  0
  -10.6226    4.4116    0.3248 H   0  0  0  0  0  0  0  0  0  0  0  0
   -8.5473    5.1146   -0.7832 H   0  0  0  0  0  0  0  0  0  0  0  0
   -5.3792    4.6641   -2.3330 H   0  0  0  0  0  0  0  0  0  0  0  0
   -4.0355   -1.8584   -1.6892 H   0  0  0  0  0  0  0  0  0  0  0  0
   -3.4014   -4.1512   -1.0831 H   0  0  0  0  0  0  0  0  0  0  0  0
   -3.4892   -5.9909    0.5654 H   0  0  0  0  0  0  0  0  0  0  0  0
   -5.4760   -3.7543    2.6630 H   0  0  0  0  0  0  0  0  0  0  0  0
   -6.0955   -1.4426    2.0835 H   0  0  0  0  0  0  0  0  0  0  0  0
   -1.8736   -0.7226    0.9947 H   0  0  0  0  0  0  0  0  0  0  0  0
   -3.3046    1.5868    1.8812 H   0  0  0  0  0  0  0  0  0  0  0  0
   -1.0732    1.7206    2.5823 H   0  0  0  0  0  0  0  0  0  0  0  0
    0.4140    0.2983    3.3065 H   0  0  0  0  0  0  0  0  0  0  0  0
    1.3020    1.4781    1.3897 H   0  0  0  0  0  0  0  0  0  0  0  0
    0.8071    3.3277    0.3408 H   0  0  0  0  0  0  0  0  0  0  0  0
    4.5670   -0.5841    1.0467 H   0  0  0  0  0  0  0  0  0  0  0  0
    5.6091    0.5517   -0.4779 H   0  0  0  0  0  0  0  0  0  0  0  0
    3.0415    1.7124   -2.8270 H   0  0  0  0  0  0  0  0  0  0  0  0
    5.0165    2.7019   -0.6971 H   0  0  0  0  0  0  0  0  0  0  0  0
    3.7713    3.6187   -1.6055 H   0  0  0  0  0  0  0  0  0  0  0  0
    3.2722    2.3506   -0.4299 H   0  0  0  0  0  0  0  0  0  0  0  0
    5.1729    2.9040   -3.6145 H   0  0  0  0  0  0  0  0  0  0  0  0
    5.2048    1.5646   -5.3366 H   0  0  0  0  0  0  0  0  0  0  0  0
    7.1408    1.2352   -3.8793 H   0  0  0  0  0  0  0  0  0  0  0  0
    8.0391    2.0398   -2.0788 H   0  0  0  0  0  0  0  0  0  0  0  0
    6.0531   -0.8237   -3.1994 H   0  0  0  0  0  0  0  0  0  0  0  0
    7.5911   -1.5222   -1.8217 H   0  0  0  0  0  0  0  0  0  0  0  0
    6.0565   -2.4371    1.5297 H   0  0  0  0  0  0  0  0  0  0  0  0
    5.5344   -4.4982    1.0108 H   0  0  0  0  0  0  0  0  0  0  0  0
    4.2089   -3.8402    2.9541 H   0  0  0  0  0  0  0  0  0  0  0  0
    5.5637   -2.4346    3.9348 H   0  0  0  0  0  0  0  0  0  0  0  0
  1  2  1  0
  1  3  1  0
  3  4  1  0
  4  5  1  0
  5  6  1  0
  6  7  1  0
  7  8  1  0
  8  9  1  0
  9 10  1  0
 10 11  1  0
 11 12  2  0
 12 13  1  0
 13 14  1  0
 14 15  2  0
 15 16  1  0
 16 17  1  0
 16 18  2  0
 18 19  1  0
 19 20  1  0
 19 21  2  0
 21 22  1  0
 22 23  2  0
 12 24  1  0
 24 25  2  0
 25 26  1  0
 26 27  2  0
 27 28  1  0
 27 29  1  0
 29 30  2  0
  9 31  1  0
 31 32  1  0
 31 33  1  0
 33 34  1  0
 33 35  1  0
 35 36  1  0
  4 37  1  0
 37 38  1  0
 38 39  1  0
 39 40  1  0
 40 41  1  0
 41 42  1  0
 41 43  1  0
 43 44  1  0
 43 45  1  0
 45 46  1  0
 45 47  1  0
 47 48  1  0
 37 49  1  0
 49 50  1  0
 49 51  1  0
 51 52  1  0
 51  1  1  0
 35  7  1  0
 47 39  1  0
 22 11  1  0
 30 24  1  0
 21 14  1  0
  1 53  1  1
  2 54  1  0
  2 55  1  0
  2 56  1  0
  4 57  1  6
  6 58  1  0
  6 59  1  0
  7 60  1  6
  9 61  1  1
 15 62  1  0
 17 63  1  0
 18 64  1  0
 20 65  1  0
 25 66  1  0
 26 67  1  0
 28 68  1  0
 29 69  1  0
 30 70  1  0
 31 71  1  6
 32 72  1  0
 33 73  1  1
 34 74  1  0
 35 75  1  1
 36 76  1  0
 37 77  1  1
 39 78  1  1
 41 79  1  6
 42 80  1  0
 42 81  1  0
 42 82  1  0
 43 83  1  6
 44 84  1  0
 45 85  1  6
 46 86  1  0
 47 87  1  6
 48 88  1  0
 49 89  1  1
 50 90  1  0
 51 91  1  1
 52 92  1  0
M  END
>  <LIG_ID>  (250) 
249

>  <_smiles>  (250) 
[H][C@@]1(C)O[C@@]([H])(OC[C@@]2([H])O[C@@]([H])(OC3=C(OC4=CC(O)=CC(O)=C4C3=O)C3=CC=C(O)C=C3)[C@]([H])(O)[C@@]([H])(O)[C@]2([H])O)[C@]([H])(O[C@]2([H])O[C@@]([H])(C)[C@]([H])(O)[C@@]([H])(O)[C@@]2([H])O)[C@]([H])(O)[C@@]1([H])O

>  <_name>  (250) 
Kaempferol 3-O-rhamnosyl-rhamnosyl-glucoside

>  <_molecular_weight>  (250) 
740.659

>  <_formula>  (250) 
C33H40O19

>  <_logP>  (250) 
-2.5408999999999993

>  <_molecular_wt_calculated>  (250) 
740.6640000000018

>  <_havy_atom_count>  (250) 
52

>  <_hydrogen_acceptors>  (250) 
19

>  <_hydrogen_donors>  (250) 
11

>  <_rotatable_bonds>  (250) 
21

>  <_amide_bonds>  (250) 
0

>  <_ring_count>  (250) 
6

$$$$
Methylgalangin
     RDKit          3D

 33 35  0  0  0  0  0  0  0  0999 V2000
   -1.5129    3.3742   -0.1370 C   0  0  0  0  0  0  0  0  0  0  0  0
   -1.5206    1.9506   -0.1214 O   0  0  0  0  0  0  0  0  0  0  0  0
   -0.3951    1.1032   -0.0664 C   0  0  0  0  0  0  0  0  0  0  0  0
   -0.6125   -0.2865    0.0021 C   0  0  0  0  0  0  0  0  0  0  0  0
    0.4154   -1.1247   -0.0305 O   0  0  0  0  0  0  0  0  0  0  0  0
    1.6802   -0.7308   -0.0720 C   0  0  0  0  0  0  0  0  0  0  0  0
    2.6806   -1.7045   -0.1290 C   0  0  0  0  0  0  0  0  0  0  0  0
    4.0225   -1.3364   -0.1842 C   0  0  0  0  0  0  0  0  0  0  0  0
    5.0032   -2.3228   -0.2633 O   0  0  0  0  0  0  0  0  0  0  0  0
    4.3725    0.0154   -0.1491 C   0  0  0  0  0  0  0  0  0  0  0  0
    3.3931    1.0116   -0.0524 C   0  0  0  0  0  0  0  0  0  0  0  0
    3.8507    2.3255    0.0834 O   0  0  0  0  0  0  0  0  0  0  0  0
    2.0126    0.6468   -0.0641 C   0  0  0  0  0  0  0  0  0  0  0  0
    0.9399    1.5704   -0.1141 C   0  0  0  0  0  0  0  0  0  0  0  0
    1.1644    2.8001   -0.2478 O   0  0  0  0  0  0  0  0  0  0  0  0
   -1.9734   -0.8645    0.0828 C   0  0  0  0  0  0  0  0  0  0  0  0
   -2.9399   -0.3415    0.9623 C   0  0  0  0  0  0  0  0  0  0  0  0
   -4.2106   -0.9202    1.0396 C   0  0  0  0  0  0  0  0  0  0  0  0
   -4.5239   -2.0312    0.2526 C   0  0  0  0  0  0  0  0  0  0  0  0
   -3.5642   -2.5708   -0.6073 C   0  0  0  0  0  0  0  0  0  0  0  0
   -2.2920   -1.9959   -0.6876 C   0  0  0  0  0  0  0  0  0  0  0  0
   -2.5606    3.7380   -0.1218 H   0  0  0  0  0  0  0  0  0  0  0  0
   -1.0310    3.7461   -1.0654 H   0  0  0  0  0  0  0  0  0  0  0  0
   -0.9948    3.7661    0.7634 H   0  0  0  0  0  0  0  0  0  0  0  0
    2.4117   -2.7537   -0.1429 H   0  0  0  0  0  0  0  0  0  0  0  0
    5.9884   -2.0888   -0.3019 H   0  0  0  0  0  0  0  0  0  0  0  0
    5.4184    0.2967   -0.1629 H   0  0  0  0  0  0  0  0  0  0  0  0
    3.3072    3.0836    0.4684 H   0  0  0  0  0  0  0  0  0  0  0  0
   -2.7072    0.4978    1.6052 H   0  0  0  0  0  0  0  0  0  0  0  0
   -4.9500   -0.5121    1.7165 H   0  0  0  0  0  0  0  0  0  0  0  0
   -5.5075   -2.4786    0.3150 H   0  0  0  0  0  0  0  0  0  0  0  0
   -3.8054   -3.4362   -1.2109 H   0  0  0  0  0  0  0  0  0  0  0  0
   -1.5594   -2.4267   -1.3593 H   0  0  0  0  0  0  0  0  0  0  0  0
  1  2  1  0
  2  3  1  0
  3  4  2  0
  4  5  1  0
  5  6  1  0
  6  7  2  0
  7  8  1  0
  8  9  1  0
  8 10  2  0
 10 11  1  0
 11 12  1  0
 11 13  2  0
 13 14  1  0
 14 15  2  0
  4 16  1  0
 16 17  2  0
 17 18  1  0
 18 19  2  0
 19 20  1  0
 20 21  2  0
 14  3  1  0
 21 16  1  0
 13  6  1  0
  1 22  1  0
  1 23  1  0
  1 24  1  0
  7 25  1  0
  9 26  1  0
 10 27  1  0
 12 28  1  0
 17 29  1  0
 18 30  1  0
 19 31  1  0
 20 32  1  0
 21 33  1  0
M  END
>  <LIG_ID>  (251) 
250

>  <_smiles>  (251) 
COC1=C(OC2=CC(O)=CC(O)=C2C1=O)C1=CC=CC=C1

>  <_name>  (251) 
Methylgalangin

>  <_molecular_weight>  (251) 
284.263

>  <_formula>  (251) 
C16H12O5

>  <_logP>  (251) 
2.8798000000000012

>  <_molecular_wt_calculated>  (251) 
284.26699999999977

>  <_havy_atom_count>  (251) 
21

>  <_hydrogen_acceptors>  (251) 
5

>  <_hydrogen_donors>  (251) 
2

>  <_rotatable_bonds>  (251) 
5

>  <_amide_bonds>  (251) 
0

>  <_ring_count>  (251) 
3

$$$$
Kaempferol 3,7,4'-O-triglucoside
     RDKit          3D

 94 99  0  0  0  0  0  0  0  0999 V2000
   -6.9263   -2.4499    0.8473 C   0  0  1  0  0  0  0  0  0  0  0  0
   -5.6253   -3.2722    0.7173 C   0  0  0  0  0  0  0  0  0  0  0  0
   -5.7235   -4.4705    1.4404 O   0  0  0  0  0  0  0  0  0  0  0  0
   -6.7510   -1.0859    0.4773 O   0  0  0  0  0  0  0  0  0  0  0  0
   -6.7309   -0.8542   -0.9259 C   0  0  1  0  0  0  0  0  0  0  0  0
   -5.5544   -1.3905   -1.5350 O   0  0  0  0  0  0  0  0  0  0  0  0
   -4.2437   -0.9605   -1.2751 C   0  0  0  0  0  0  0  0  0  0  0  0
   -3.9507    0.0796   -0.3733 C   0  0  0  0  0  0  0  0  0  0  0  0
   -2.6262    0.4624   -0.1459 C   0  0  0  0  0  0  0  0  0  0  0  0
   -1.5738   -0.1721   -0.8283 C   0  0  0  0  0  0  0  0  0  0  0  0
   -1.8681   -1.2232   -1.7094 C   0  0  0  0  0  0  0  0  0  0  0  0
   -3.1929   -1.6068   -1.9349 C   0  0  0  0  0  0  0  0  0  0  0  0
   -0.1637    0.2111   -0.5917 C   0  0  0  0  0  0  0  0  0  0  0  0
    0.2416    1.5580   -0.5512 C   0  0  0  0  0  0  0  0  0  0  0  0
   -0.7334    2.5462   -0.7989 O   0  0  0  0  0  0  0  0  0  0  0  0
   -0.6116    3.9560   -0.6166 C   0  0  2  0  0  0  0  0  0  0  0  0
   -0.3221    4.2128    0.7518 O   0  0  0  0  0  0  0  0  0  0  0  0
   -0.4297    5.5947    1.0331 C   0  0  2  0  0  0  0  0  0  0  0  0
    0.2467    5.8748    2.3792 C   0  0  0  0  0  0  0  0  0  0  0  0
    0.2167    7.2475    2.6583 O   0  0  0  0  0  0  0  0  0  0  0  0
   -1.9239    6.0173    1.0452 C   0  0  1  0  0  0  0  0  0  0  0  0
   -2.0246    7.3525    0.6181 O   0  0  0  0  0  0  0  0  0  0  0  0
   -2.7690    5.1002    0.1264 C   0  0  2  0  0  0  0  0  0  0  0  0
   -3.2121    3.9887    0.8650 O   0  0  0  0  0  0  0  0  0  0  0  0
   -1.9410    4.6244   -1.0827 C   0  0  1  0  0  0  0  0  0  0  0  0
   -1.6665    5.7262   -1.9109 O   0  0  0  0  0  0  0  0  0  0  0  0
    1.6044    1.8401   -0.2956 C   0  0  0  0  0  0  0  0  0  0  0  0
    1.9812    3.0327   -0.1763 O   0  0  0  0  0  0  0  0  0  0  0  0
    2.5296    0.7762   -0.1513 C   0  0  0  0  0  0  0  0  0  0  0  0
    3.9319    0.9451    0.0565 C   0  0  0  0  0  0  0  0  0  0  0  0
    4.5873    2.1791    0.0007 O   0  0  0  0  0  0  0  0  0  0  0  0
    4.7357   -0.1740    0.3061 C   0  0  0  0  0  0  0  0  0  0  0  0
    4.2015   -1.4718    0.2828 C   0  0  0  0  0  0  0  0  0  0  0  0
    4.9819   -2.6167    0.5095 O   0  0  0  0  0  0  0  0  0  0  0  0
    6.3881   -2.6130    0.7534 C   0  0  2  0  0  0  0  0  0  0  0  0
    7.0579   -2.1470   -0.4020 O   0  0  0  0  0  0  0  0  0  0  0  0
    8.4062   -1.8359   -0.0914 C   0  0  2  0  0  0  0  0  0  0  0  0
    9.0874   -1.3399   -1.3744 C   0  0  0  0  0  0  0  0  0  0  0  0
   10.3404   -0.7783   -1.0819 O   0  0  0  0  0  0  0  0  0  0  0  0
    9.1640   -3.0584    0.5297 C   0  0  1  0  0  0  0  0  0  0  0  0
    9.6577   -2.7361    1.8072 O   0  0  0  0  0  0  0  0  0  0  0  0
    8.2856   -4.3346    0.5925 C   0  0  2  0  0  0  0  0  0  0  0  0
    8.2641   -4.9772   -0.6604 O   0  0  0  0  0  0  0  0  0  0  0  0
    6.8432   -4.0519    1.0893 C   0  0  1  0  0  0  0  0  0  0  0  0
    6.7764   -4.2590    2.4774 O   0  0  0  0  0  0  0  0  0  0  0  0
    2.8443   -1.6421    0.0190 C   0  0  0  0  0  0  0  0  0  0  0  0
    2.0109   -0.5414   -0.1903 C   0  0  0  0  0  0  0  0  0  0  0  0
    0.7228   -0.7592   -0.4144 O   0  0  0  0  0  0  0  0  0  0  0  0
   -7.9930   -1.3736   -1.6320 C   0  0  2  0  0  0  0  0  0  0  0  0
   -9.0985   -0.6142   -1.2122 O   0  0  0  0  0  0  0  0  0  0  0  0
   -8.2217   -2.8611   -1.3283 C   0  0  1  0  0  0  0  0  0  0  0  0
   -7.2634   -3.6340   -2.0049 O   0  0  0  0  0  0  0  0  0  0  0  0
   -8.1629   -3.1184    0.1878 C   0  0  2  0  0  0  0  0  0  0  0  0
   -9.3373   -2.6187    0.7776 O   0  0  0  0  0  0  0  0  0  0  0  0
   -7.1366   -2.4290    1.9394 H   0  0  0  0  0  0  0  0  0  0  0  0
   -5.4140   -3.5299   -0.3372 H   0  0  0  0  0  0  0  0  0  0  0  0
   -4.7644   -2.6727    1.0924 H   0  0  0  0  0  0  0  0  0  0  0  0
   -5.5823   -4.2409    2.3960 H   0  0  0  0  0  0  0  0  0  0  0  0
   -6.7185    0.2465   -1.0841 H   0  0  0  0  0  0  0  0  0  0  0  0
   -4.7349    0.5921    0.1659 H   0  0  0  0  0  0  0  0  0  0  0  0
   -2.4241    1.2401    0.5794 H   0  0  0  0  0  0  0  0  0  0  0  0
   -1.0722   -1.7388   -2.2331 H   0  0  0  0  0  0  0  0  0  0  0  0
   -3.4050   -2.4144   -2.6241 H   0  0  0  0  0  0  0  0  0  0  0  0
    0.2213    4.3213   -1.2585 H   0  0  0  0  0  0  0  0  0  0  0  0
    0.1260    6.1860    0.2649 H   0  0  0  0  0  0  0  0  0  0  0  0
   -0.2692    5.3096    3.1881 H   0  0  0  0  0  0  0  0  0  0  0  0
    1.3043    5.5306    2.3302 H   0  0  0  0  0  0  0  0  0  0  0  0
    0.6604    7.3588    3.5389 H   0  0  0  0  0  0  0  0  0  0  0  0
   -2.3276    5.9343    2.0832 H   0  0  0  0  0  0  0  0  0  0  0  0
   -2.9079    7.6881    0.9233 H   0  0  0  0  0  0  0  0  0  0  0  0
   -3.6577    5.6679   -0.2382 H   0  0  0  0  0  0  0  0  0  0  0  0
   -3.9500    3.5724    0.3470 H   0  0  0  0  0  0  0  0  0  0  0  0
   -2.5578    3.8917   -1.6562 H   0  0  0  0  0  0  0  0  0  0  0  0
   -1.3916    5.3607   -2.7924 H   0  0  0  0  0  0  0  0  0  0  0  0
    4.2301    3.0001   -0.4642 H   0  0  0  0  0  0  0  0  0  0  0  0
    5.7904   -0.0173    0.4863 H   0  0  0  0  0  0  0  0  0  0  0  0
    6.5824   -1.9483    1.6294 H   0  0  0  0  0  0  0  0  0  0  0  0
    8.4232   -0.9761    0.6194 H   0  0  0  0  0  0  0  0  0  0  0  0
    8.4558   -0.5497   -1.8342 H   0  0  0  0  0  0  0  0  0  0  0  0
    9.1725   -2.1683   -2.1165 H   0  0  0  0  0  0  0  0  0  0  0  0
   11.0230   -1.4763   -1.2591 H   0  0  0  0  0  0  0  0  0  0  0  0
   10.0511   -3.3147   -0.0896 H   0  0  0  0  0  0  0  0  0  0  0  0
    8.8813   -2.5350    2.3913 H   0  0  0  0  0  0  0  0  0  0  0  0
    8.7687   -5.0473    1.2975 H   0  0  0  0  0  0  0  0  0  0  0  0
    7.8217   -4.3719   -1.3097 H   0  0  0  0  0  0  0  0  0  0  0  0
    6.1635   -4.7807    0.5862 H   0  0  0  0  0  0  0  0  0  0  0  0
    5.8134   -4.3160    2.7130 H   0  0  0  0  0  0  0  0  0  0  0  0
    2.4281   -2.6419   -0.0085 H   0  0  0  0  0  0  0  0  0  0  0  0
   -7.8557   -1.2423   -2.7316 H   0  0  0  0  0  0  0  0  0  0  0  0
   -9.8183   -0.7591   -1.8807 H   0  0  0  0  0  0  0  0  0  0  0  0
   -9.2339   -3.1426   -1.7045 H   0  0  0  0  0  0  0  0  0  0  0  0
   -7.5951   -4.5698   -2.0061 H   0  0  0  0  0  0  0  0  0  0  0  0
   -8.1237   -4.2214    0.3514 H   0  0  0  0  0  0  0  0  0  0  0  0
   -9.4428   -3.0791    1.6512 H   0  0  0  0  0  0  0  0  0  0  0  0
  1  2  1  0
  2  3  1  0
  1  4  1  0
  4  5  1  0
  5  6  1  0
  6  7  1  0
  7  8  2  0
  8  9  1  0
  9 10  2  0
 10 11  1  0
 11 12  2  0
 10 13  1  0
 13 14  2  0
 14 15  1  0
 15 16  1  0
 16 17  1  0
 17 18  1  0
 18 19  1  0
 19 20  1  0
 18 21  1  0
 21 22  1  0
 21 23  1  0
 23 24  1  0
 23 25  1  0
 25 26  1  0
 14 27  1  0
 27 28  2  0
 27 29  1  0
 29 30  2  0
 30 31  1  0
 30 32  1  0
 32 33  2  0
 33 34  1  0
 34 35  1  0
 35 36  1  0
 36 37  1  0
 37 38  1  0
 38 39  1  0
 37 40  1  0
 40 41  1  0
 40 42  1  0
 42 43  1  0
 42 44  1  0
 44 45  1  0
 33 46  1  0
 46 47  2  0
 47 48  1  0
  5 49  1  0
 49 50  1  0
 49 51  1  0
 51 52  1  0
 51 53  1  0
 53 54  1  0
 53  1  1  0
 12  7  1  0
 48 13  1  0
 25 16  1  0
 47 29  1  0
 44 35  1  0
  1 55  1  1
  2 56  1  0
  2 57  1  0
  3 58  1  0
  5 59  1  1
  8 60  1  0
  9 61  1  0
 11 62  1  0
 12 63  1  0
 16 64  1  6
 18 65  1  6
 19 66  1  0
 19 67  1  0
 20 68  1  0
 21 69  1  1
 22 70  1  0
 23 71  1  6
 24 72  1  0
 25 73  1  6
 26 74  1  0
 31 75  1  0
 32 76  1  0
 35 77  1  1
 37 78  1  1
 38 79  1  0
 38 80  1  0
 39 81  1  0
 40 82  1  6
 41 83  1  0
 42 84  1  1
 43 85  1  0
 44 86  1  6
 45 87  1  0
 46 88  1  0
 49 89  1  6
 50 90  1  0
 51 91  1  6
 52 92  1  0
 53 93  1  6
 54 94  1  0
M  END
>  <LIG_ID>  (252) 
251

>  <_smiles>  (252) 
[H][C@]1(CO)O[C@@]([H])(OC2=CC=C(C=C2)C2=C(O[C@]3([H])O[C@]([H])(CO)[C@@]([H])(O)[C@]([H])(O)[C@@]3([H])O)C(=O)C3=C(O)C=C(O[C@]4([H])O[C@]([H])(CO)[C@@]([H])(O)[C@]([H])(O)[C@@]4([H])O)C=C3O2)[C@]([H])(O)[C@@]([H])(O)[C@]1([H])O

>  <_name>  (252) 
Kaempferol 3,7,4'-O-triglucoside

>  <_molecular_weight>  (252) 
772.658

>  <_formula>  (252) 
C33H40O21

>  <_logP>  (252) 
-5.298299999999988

>  <_molecular_wt_calculated>  (252) 
772.6620000000019

>  <_havy_atom_count>  (252) 
54

>  <_hydrogen_acceptors>  (252) 
21

>  <_hydrogen_donors>  (252) 
13

>  <_rotatable_bonds>  (252) 
23

>  <_amide_bonds>  (252) 
0

>  <_ring_count>  (252) 
6

$$$$
3-Methoxynobiletin
     RDKit          3D

 55 57  0  0  0  0  0  0  0  0999 V2000
    6.2547    0.0110   -3.6312 C   0  0  0  0  0  0  0  0  0  0  0  0
    5.9724    0.0930   -2.2379 O   0  0  0  0  0  0  0  0  0  0  0  0
    4.6955   -0.0610   -1.6750 C   0  0  0  0  0  0  0  0  0  0  0  0
    4.5631    0.0463   -0.2819 C   0  0  0  0  0  0  0  0  0  0  0  0
    5.7143    0.3070    0.4784 O   0  0  0  0  0  0  0  0  0  0  0  0
    5.7342    0.4296    1.8970 C   0  0  0  0  0  0  0  0  0  0  0  0
    3.2943   -0.1051    0.3112 C   0  0  0  0  0  0  0  0  0  0  0  0
    2.1638   -0.3787   -0.4765 C   0  0  0  0  0  0  0  0  0  0  0  0
    2.3043   -0.4654   -1.8675 C   0  0  0  0  0  0  0  0  0  0  0  0
    3.5573   -0.3141   -2.4632 C   0  0  0  0  0  0  0  0  0  0  0  0
    0.8217   -0.5167    0.1315 C   0  0  0  0  0  0  0  0  0  0  0  0
    0.6008   -1.3104    1.2694 C   0  0  0  0  0  0  0  0  0  0  0  0
    1.6891   -2.0292    1.8045 O   0  0  0  0  0  0  0  0  0  0  0  0
    1.6698   -2.8667    2.9553 C   0  0  0  0  0  0  0  0  0  0  0  0
   -0.7080   -1.3621    1.7951 C   0  0  0  0  0  0  0  0  0  0  0  0
   -0.9473   -2.0536    2.8205 O   0  0  0  0  0  0  0  0  0  0  0  0
   -1.7502   -0.6416    1.1628 C   0  0  0  0  0  0  0  0  0  0  0  0
   -1.4374    0.1094    0.0091 C   0  0  0  0  0  0  0  0  0  0  0  0
   -0.1879    0.1286   -0.4384 O   0  0  0  0  0  0  0  0  0  0  0  0
   -2.4414    0.8468   -0.6668 C   0  0  0  0  0  0  0  0  0  0  0  0
   -2.1603    1.6243   -1.8076 O   0  0  0  0  0  0  0  0  0  0  0  0
   -0.9087    1.7752   -2.4696 C   0  0  0  0  0  0  0  0  0  0  0  0
   -3.7784    0.8117   -0.1867 C   0  0  0  0  0  0  0  0  0  0  0  0
   -4.8278    1.5117   -0.8149 O   0  0  0  0  0  0  0  0  0  0  0  0
   -4.7655    2.3125   -1.9903 C   0  0  0  0  0  0  0  0  0  0  0  0
   -4.0888    0.0487    0.9675 C   0  0  0  0  0  0  0  0  0  0  0  0
   -5.3928   -0.0828    1.4880 O   0  0  0  0  0  0  0  0  0  0  0  0
   -6.5893    0.5002    0.9832 C   0  0  0  0  0  0  0  0  0  0  0  0
   -3.0755   -0.6452    1.6470 C   0  0  0  0  0  0  0  0  0  0  0  0
   -3.4009   -1.3657    2.8029 O   0  0  0  0  0  0  0  0  0  0  0  0
   -3.7607   -0.7220    4.0207 C   0  0  0  0  0  0  0  0  0  0  0  0
    5.9822   -0.9938   -4.0176 H   0  0  0  0  0  0  0  0  0  0  0  0
    7.3408    0.1701   -3.7907 H   0  0  0  0  0  0  0  0  0  0  0  0
    5.6958    0.7974   -4.1810 H   0  0  0  0  0  0  0  0  0  0  0  0
    5.0960    1.2806    2.2158 H   0  0  0  0  0  0  0  0  0  0  0  0
    6.7747    0.6227    2.2294 H   0  0  0  0  0  0  0  0  0  0  0  0
    5.3798   -0.5122    2.3669 H   0  0  0  0  0  0  0  0  0  0  0  0
    3.1777    0.0097    1.3801 H   0  0  0  0  0  0  0  0  0  0  0  0
    1.4439   -0.6664   -2.4935 H   0  0  0  0  0  0  0  0  0  0  0  0
    3.6303   -0.3971   -3.5389 H   0  0  0  0  0  0  0  0  0  0  0  0
    1.3799   -2.2805    3.8526 H   0  0  0  0  0  0  0  0  0  0  0  0
    2.6890   -3.2723    3.1200 H   0  0  0  0  0  0  0  0  0  0  0  0
    0.9773   -3.7202    2.7985 H   0  0  0  0  0  0  0  0  0  0  0  0
   -0.5568    0.7951   -2.8526 H   0  0  0  0  0  0  0  0  0  0  0  0
   -0.1619    2.2326   -1.7871 H   0  0  0  0  0  0  0  0  0  0  0  0
   -1.0433    2.4544   -3.3361 H   0  0  0  0  0  0  0  0  0  0  0  0
   -4.4306    1.7030   -2.8558 H   0  0  0  0  0  0  0  0  0  0  0  0
   -5.7821    2.6953   -2.2141 H   0  0  0  0  0  0  0  0  0  0  0  0
   -4.0996    3.1858   -1.8280 H   0  0  0  0  0  0  0  0  0  0  0  0
   -6.7868    0.1432   -0.0493 H   0  0  0  0  0  0  0  0  0  0  0  0
   -6.5245    1.6078    1.0213 H   0  0  0  0  0  0  0  0  0  0  0  0
   -7.4376    0.1843    1.6241 H   0  0  0  0  0  0  0  0  0  0  0  0
   -2.9431   -0.0435    4.3440 H   0  0  0  0  0  0  0  0  0  0  0  0
   -4.6974   -0.1410    3.9005 H   0  0  0  0  0  0  0  0  0  0  0  0
   -3.9181   -1.4909    4.8044 H   0  0  0  0  0  0  0  0  0  0  0  0
  1  2  1  0
  2  3  1  0
  3  4  2  0
  4  5  1  0
  5  6  1  0
  4  7  1  0
  7  8  2  0
  8  9  1  0
  9 10  2  0
  8 11  1  0
 11 12  2  0
 12 13  1  0
 13 14  1  0
 12 15  1  0
 15 16  2  0
 15 17  1  0
 17 18  2  0
 18 19  1  0
 18 20  1  0
 20 21  1  0
 21 22  1  0
 20 23  2  0
 23 24  1  0
 24 25  1  0
 23 26  1  0
 26 27  1  0
 27 28  1  0
 26 29  2  0
 29 30  1  0
 30 31  1  0
 10  3  1  0
 19 11  1  0
 29 17  1  0
  1 32  1  0
  1 33  1  0
  1 34  1  0
  6 35  1  0
  6 36  1  0
  6 37  1  0
  7 38  1  0
  9 39  1  0
 10 40  1  0
 14 41  1  0
 14 42  1  0
 14 43  1  0
 22 44  1  0
 22 45  1  0
 22 46  1  0
 25 47  1  0
 25 48  1  0
 25 49  1  0
 28 50  1  0
 28 51  1  0
 28 52  1  0
 31 53  1  0
 31 54  1  0
 31 55  1  0
M  END
>  <LIG_ID>  (253) 
252

>  <_smiles>  (253) 
COC1=C(OC)C=C(C=C1)C1=C(OC)C(=O)C2=C(O1)C(OC)=C(OC)C(OC)=C2OC

>  <_name>  (253) 
3-Methoxynobiletin

>  <_molecular_weight>  (253) 
432.421

>  <_formula>  (253) 
C22H24O9

>  <_logP>  (253) 
3.5202000000000027

>  <_molecular_wt_calculated>  (253) 
432.4249999999998

>  <_havy_atom_count>  (253) 
31

>  <_hydrogen_acceptors>  (253) 
9

>  <_hydrogen_donors>  (253) 
0

>  <_rotatable_bonds>  (253) 
15

>  <_amide_bonds>  (253) 
0

>  <_ring_count>  (253) 
3

$$$$
3-Methoxysinensetin
     RDKit          3D

 51 53  0  0  0  0  0  0  0  0999 V2000
    7.2297   -1.4973    1.4149 C   0  0  0  0  0  0  0  0  0  0  0  0
    6.3709   -1.2597    0.3043 O   0  0  0  0  0  0  0  0  0  0  0  0
    5.0172   -0.9021    0.4081 C   0  0  0  0  0  0  0  0  0  0  0  0
    4.2885   -0.6985   -0.7738 C   0  0  0  0  0  0  0  0  0  0  0  0
    4.9497   -0.8666   -2.0010 O   0  0  0  0  0  0  0  0  0  0  0  0
    4.3402   -0.6961   -3.2767 C   0  0  0  0  0  0  0  0  0  0  0  0
    2.9289   -0.3363   -0.7006 C   0  0  0  0  0  0  0  0  0  0  0  0
    2.2995   -0.1625    0.5412 C   0  0  0  0  0  0  0  0  0  0  0  0
    3.0313   -0.3898    1.7168 C   0  0  0  0  0  0  0  0  0  0  0  0
    4.3785   -0.7489    1.6526 C   0  0  0  0  0  0  0  0  0  0  0  0
    0.8628    0.1934    0.5871 C   0  0  0  0  0  0  0  0  0  0  0  0
    0.3635    1.1705    1.4694 C   0  0  0  0  0  0  0  0  0  0  0  0
    1.2802    1.8589    2.2900 O   0  0  0  0  0  0  0  0  0  0  0  0
    0.9748    2.8772    3.2367 C   0  0  0  0  0  0  0  0  0  0  0  0
   -1.0277    1.4268    1.4615 C   0  0  0  0  0  0  0  0  0  0  0  0
   -1.5130    2.2803    2.2505 O   0  0  0  0  0  0  0  0  0  0  0  0
   -1.8700    0.7264    0.5619 C   0  0  0  0  0  0  0  0  0  0  0  0
   -3.2750    0.9333    0.4915 C   0  0  0  0  0  0  0  0  0  0  0  0
   -3.8439    1.8775    1.3737 O   0  0  0  0  0  0  0  0  0  0  0  0
   -5.2129    2.2516    1.4862 C   0  0  0  0  0  0  0  0  0  0  0  0
   -4.0513    0.1952   -0.4496 C   0  0  0  0  0  0  0  0  0  0  0  0
   -5.4403    0.4234   -0.4938 O   0  0  0  0  0  0  0  0  0  0  0  0
   -6.3959   -0.1992   -1.3457 C   0  0  0  0  0  0  0  0  0  0  0  0
   -3.4114   -0.7384   -1.3069 C   0  0  0  0  0  0  0  0  0  0  0  0
   -4.1647   -1.4698   -2.2397 O   0  0  0  0  0  0  0  0  0  0  0  0
   -3.6380   -2.4304   -3.1502 C   0  0  0  0  0  0  0  0  0  0  0  0
   -2.0246   -0.9234   -1.2140 C   0  0  0  0  0  0  0  0  0  0  0  0
   -1.2636   -0.2088   -0.2979 C   0  0  0  0  0  0  0  0  0  0  0  0
    0.0431   -0.4297   -0.2500 O   0  0  0  0  0  0  0  0  0  0  0  0
    8.2411   -1.7583    1.0416 H   0  0  0  0  0  0  0  0  0  0  0  0
    6.8450   -2.3447    2.0207 H   0  0  0  0  0  0  0  0  0  0  0  0
    7.3068   -0.5830    2.0406 H   0  0  0  0  0  0  0  0  0  0  0  0
    5.0932   -0.8923   -4.0671 H   0  0  0  0  0  0  0  0  0  0  0  0
    3.5019   -1.4143   -3.3985 H   0  0  0  0  0  0  0  0  0  0  0  0
    3.9717    0.3455   -3.3878 H   0  0  0  0  0  0  0  0  0  0  0  0
    2.3571   -0.1762   -1.6052 H   0  0  0  0  0  0  0  0  0  0  0  0
    2.5567   -0.3121    2.6869 H   0  0  0  0  0  0  0  0  0  0  0  0
    4.9129   -0.9135    2.5782 H   0  0  0  0  0  0  0  0  0  0  0  0
    0.5144    3.7501    2.7279 H   0  0  0  0  0  0  0  0  0  0  0  0
    0.3038    2.4792    4.0267 H   0  0  0  0  0  0  0  0  0  0  0  0
    1.9161    3.2127    3.7179 H   0  0  0  0  0  0  0  0  0  0  0  0
   -5.5714    2.6961    0.5341 H   0  0  0  0  0  0  0  0  0  0  0  0
   -5.8293    1.3767    1.7816 H   0  0  0  0  0  0  0  0  0  0  0  0
   -5.3079    3.0205    2.2799 H   0  0  0  0  0  0  0  0  0  0  0  0
   -7.3999    0.2118   -1.1148 H   0  0  0  0  0  0  0  0  0  0  0  0
   -6.1692    0.0255   -2.4090 H   0  0  0  0  0  0  0  0  0  0  0  0
   -6.4221   -1.2937   -1.1613 H   0  0  0  0  0  0  0  0  0  0  0  0
   -4.4675   -2.8422   -3.7606 H   0  0  0  0  0  0  0  0  0  0  0  0
   -3.1609   -3.2641   -2.5929 H   0  0  0  0  0  0  0  0  0  0  0  0
   -2.9028   -1.9502   -3.8299 H   0  0  0  0  0  0  0  0  0  0  0  0
   -1.5162   -1.6306   -1.8555 H   0  0  0  0  0  0  0  0  0  0  0  0
  1  2  1  0
  2  3  1  0
  3  4  2  0
  4  5  1  0
  5  6  1  0
  4  7  1  0
  7  8  2  0
  8  9  1  0
  9 10  2  0
  8 11  1  0
 11 12  2  0
 12 13  1  0
 13 14  1  0
 12 15  1  0
 15 16  2  0
 15 17  1  0
 17 18  2  0
 18 19  1  0
 19 20  1  0
 18 21  1  0
 21 22  1  0
 22 23  1  0
 21 24  2  0
 24 25  1  0
 25 26  1  0
 24 27  1  0
 27 28  2  0
 28 29  1  0
 10  3  1  0
 29 11  1  0
 28 17  1  0
  1 30  1  0
  1 31  1  0
  1 32  1  0
  6 33  1  0
  6 34  1  0
  6 35  1  0
  7 36  1  0
  9 37  1  0
 10 38  1  0
 14 39  1  0
 14 40  1  0
 14 41  1  0
 20 42  1  0
 20 43  1  0
 20 44  1  0
 23 45  1  0
 23 46  1  0
 23 47  1  0
 26 48  1  0
 26 49  1  0
 26 50  1  0
 27 51  1  0
M  END
>  <LIG_ID>  (254) 
253

>  <_smiles>  (254) 
COC1=C(OC)C=C(C=C1)C1=C(OC)C(=O)C2=C(OC)C(OC)=C(OC)C=C2O1

>  <_name>  (254) 
3-Methoxysinensetin

>  <_molecular_weight>  (254) 
402.395

>  <_formula>  (254) 
C21H22O8

>  <_logP>  (254) 
3.5116000000000023

>  <_molecular_wt_calculated>  (254) 
402.3989999999998

>  <_havy_atom_count>  (254) 
29

>  <_hydrogen_acceptors>  (254) 
8

>  <_hydrogen_donors>  (254) 
0

>  <_rotatable_bonds>  (254) 
13

>  <_amide_bonds>  (254) 
0

>  <_ring_count>  (254) 
3

$$$$
Daidzein
     RDKit          3D

 29 31  0  0  0  0  0  0  0  0999 V2000
   -6.0399    0.0335   -0.1108 O   0  0  0  0  0  0  0  0  0  0  0  0
   -4.6495   -0.0270   -0.1705 C   0  0  0  0  0  0  0  0  0  0  0  0
   -3.9100   -0.5442    0.9010 C   0  0  0  0  0  0  0  0  0  0  0  0
   -2.5147   -0.5993    0.8304 C   0  0  0  0  0  0  0  0  0  0  0  0
   -1.8412   -0.1332   -0.3128 C   0  0  0  0  0  0  0  0  0  0  0  0
   -2.5916    0.3775   -1.3868 C   0  0  0  0  0  0  0  0  0  0  0  0
   -3.9867    0.4320   -1.3127 C   0  0  0  0  0  0  0  0  0  0  0  0
   -0.3604   -0.1980   -0.3979 C   0  0  0  0  0  0  0  0  0  0  0  0
    0.2521   -0.7326   -1.5429 C   0  0  0  0  0  0  0  0  0  0  0  0
    1.5749   -0.8067   -1.6385 O   0  0  0  0  0  0  0  0  0  0  0  0
    2.3886   -0.3868   -0.6762 C   0  0  0  0  0  0  0  0  0  0  0  0
    1.8628    0.1709    0.5108 C   0  0  0  0  0  0  0  0  0  0  0  0
    2.7436    0.6130    1.5150 C   0  0  0  0  0  0  0  0  0  0  0  0
    4.1255    0.4974    1.3375 C   0  0  0  0  0  0  0  0  0  0  0  0
    4.6430   -0.0576    0.1593 C   0  0  0  0  0  0  0  0  0  0  0  0
    6.0189   -0.1759   -0.0243 O   0  0  0  0  0  0  0  0  0  0  0  0
    3.7733   -0.4977   -0.8437 C   0  0  0  0  0  0  0  0  0  0  0  0
    0.4666    0.2689    0.6421 C   0  0  0  0  0  0  0  0  0  0  0  0
   -0.0406    0.7890    1.6745 O   0  0  0  0  0  0  0  0  0  0  0  0
   -6.5495   -0.2915    0.7026 H   0  0  0  0  0  0  0  0  0  0  0  0
   -4.4153   -0.9078    1.7868 H   0  0  0  0  0  0  0  0  0  0  0  0
   -1.9628   -1.0211    1.6611 H   0  0  0  0  0  0  0  0  0  0  0  0
   -2.0967    0.7459   -2.2770 H   0  0  0  0  0  0  0  0  0  0  0  0
   -4.5533    0.8324   -2.1437 H   0  0  0  0  0  0  0  0  0  0  0  0
   -0.3505   -1.1013   -2.3631 H   0  0  0  0  0  0  0  0  0  0  0  0
    2.3687    1.0456    2.4345 H   0  0  0  0  0  0  0  0  0  0  0  0
    4.7942    0.8400    2.1169 H   0  0  0  0  0  0  0  0  0  0  0  0
    6.6759    0.1332    0.6825 H   0  0  0  0  0  0  0  0  0  0  0  0
    4.1746   -0.9256   -1.7541 H   0  0  0  0  0  0  0  0  0  0  0  0
  1  2  1  0
  2  3  2  0
  3  4  1  0
  4  5  2  0
  5  6  1  0
  6  7  2  0
  5  8  1  0
  8  9  2  0
  9 10  1  0
 10 11  1  0
 11 12  2  0
 12 13  1  0
 13 14  2  0
 14 15  1  0
 15 16  1  0
 15 17  2  0
 12 18  1  0
 18 19  2  0
  7  2  1  0
 18  8  1  0
 17 11  1  0
  1 20  1  0
  3 21  1  0
  4 22  1  0
  6 23  1  0
  7 24  1  0
  9 25  1  0
 13 26  1  0
 14 27  1  0
 16 28  1  0
 17 29  1  0
M  END
>  <LIG_ID>  (255) 
254

>  <_smiles>  (255) 
OC1=CC=C(C=C1)C1=COC2=C(C=CC(O)=C2)C1=O

>  <_name>  (255) 
Daidzein

>  <_molecular_weight>  (255) 
254.238

>  <_formula>  (255) 
C15H10O4

>  <_logP>  (255) 
2.871200000000001

>  <_molecular_wt_calculated>  (255) 
254.24100000000004

>  <_havy_atom_count>  (255) 
19

>  <_hydrogen_acceptors>  (255) 
4

>  <_hydrogen_donors>  (255) 
2

>  <_rotatable_bonds>  (255) 
3

>  <_amide_bonds>  (255) 
0

>  <_ring_count>  (255) 
3

$$$$
Formononetin
     RDKit          3D

 32 34  0  0  0  0  0  0  0  0999 V2000
    6.3208    0.2924   -0.2012 C   0  0  0  0  0  0  0  0  0  0  0  0
    5.2662    0.7620    0.6322 O   0  0  0  0  0  0  0  0  0  0  0  0
    3.9089    0.4691    0.4325 C   0  0  0  0  0  0  0  0  0  0  0  0
    2.9753    0.9973    1.3309 C   0  0  0  0  0  0  0  0  0  0  0  0
    1.6113    0.7356    1.1751 C   0  0  0  0  0  0  0  0  0  0  0  0
    1.1566   -0.0596    0.1097 C   0  0  0  0  0  0  0  0  0  0  0  0
    2.0940   -0.5967   -0.7885 C   0  0  0  0  0  0  0  0  0  0  0  0
    3.4581   -0.3336   -0.6322 C   0  0  0  0  0  0  0  0  0  0  0  0
   -0.2902   -0.3491   -0.0554 C   0  0  0  0  0  0  0  0  0  0  0  0
   -0.7202   -1.6692   -0.2664 C   0  0  0  0  0  0  0  0  0  0  0  0
   -2.0099   -1.9528   -0.4103 O   0  0  0  0  0  0  0  0  0  0  0  0
   -2.9582   -1.0237   -0.3659 C   0  0  0  0  0  0  0  0  0  0  0  0
   -2.6199    0.3331   -0.1629 C   0  0  0  0  0  0  0  0  0  0  0  0
   -3.6405    1.3007   -0.1237 C   0  0  0  0  0  0  0  0  0  0  0  0
   -4.9762    0.9191   -0.2817 C   0  0  0  0  0  0  0  0  0  0  0  0
   -5.3078   -0.4278   -0.4814 C   0  0  0  0  0  0  0  0  0  0  0  0
   -6.6366   -0.8152   -0.6396 O   0  0  0  0  0  0  0  0  0  0  0  0
   -4.2982   -1.3948   -0.5231 C   0  0  0  0  0  0  0  0  0  0  0  0
   -1.2630    0.6684   -0.0122 C   0  0  0  0  0  0  0  0  0  0  0  0
   -0.9183    1.8732    0.1406 O   0  0  0  0  0  0  0  0  0  0  0  0
    7.2871    0.6746    0.1868 H   0  0  0  0  0  0  0  0  0  0  0  0
    6.1821    0.6641   -1.2385 H   0  0  0  0  0  0  0  0  0  0  0  0
    6.3484   -0.8177   -0.1932 H   0  0  0  0  0  0  0  0  0  0  0  0
    3.3099    1.6109    2.1578 H   0  0  0  0  0  0  0  0  0  0  0  0
    0.9129    1.1408    1.8967 H   0  0  0  0  0  0  0  0  0  0  0  0
    1.7683   -1.2099   -1.6198 H   0  0  0  0  0  0  0  0  0  0  0  0
    4.1525   -0.7578   -1.3445 H   0  0  0  0  0  0  0  0  0  0  0  0
   -0.0018   -2.4780   -0.3060 H   0  0  0  0  0  0  0  0  0  0  0  0
   -3.4103    2.3480    0.0292 H   0  0  0  0  0  0  0  0  0  0  0  0
   -5.7537    1.6717   -0.2490 H   0  0  0  0  0  0  0  0  0  0  0  0
   -7.3916   -0.1398   -0.6146 H   0  0  0  0  0  0  0  0  0  0  0  0
   -4.5557   -2.4352   -0.6783 H   0  0  0  0  0  0  0  0  0  0  0  0
  1  2  1  0
  2  3  1  0
  3  4  2  0
  4  5  1  0
  5  6  2  0
  6  7  1  0
  7  8  2  0
  6  9  1  0
  9 10  2  0
 10 11  1  0
 11 12  1  0
 12 13  2  0
 13 14  1  0
 14 15  2  0
 15 16  1  0
 16 17  1  0
 16 18  2  0
 13 19  1  0
 19 20  2  0
  8  3  1  0
 19  9  1  0
 18 12  1  0
  1 21  1  0
  1 22  1  0
  1 23  1  0
  4 24  1  0
  5 25  1  0
  7 26  1  0
  8 27  1  0
 10 28  1  0
 14 29  1  0
 15 30  1  0
 17 31  1  0
 18 32  1  0
M  END
>  <LIG_ID>  (256) 
255

>  <_smiles>  (256) 
COC1=CC=C(C=C1)C1=COC2=C(C=CC(O)=C2)C1=O

>  <_name>  (256) 
Formononetin

>  <_molecular_weight>  (256) 
268.264

>  <_formula>  (256) 
C16H12O4

>  <_logP>  (256) 
3.1742000000000017

>  <_molecular_wt_calculated>  (256) 
268.26799999999974

>  <_havy_atom_count>  (256) 
20

>  <_hydrogen_acceptors>  (256) 
4

>  <_hydrogen_donors>  (256) 
1

>  <_rotatable_bonds>  (256) 
4

>  <_amide_bonds>  (256) 
0

>  <_ring_count>  (256) 
3

$$$$
Genistein
     RDKit          3D

 30 32  0  0  0  0  0  0  0  0999 V2000
    5.9768    1.1806   -0.2812 O   0  0  0  0  0  0  0  0  0  0  0  0
    4.6148    0.9558   -0.0944 C   0  0  0  0  0  0  0  0  0  0  0  0
    4.1717    0.3339    1.0767 C   0  0  0  0  0  0  0  0  0  0  0  0
    2.8077    0.1018    1.2781 C   0  0  0  0  0  0  0  0  0  0  0  0
    1.8691    0.4860    0.3039 C   0  0  0  0  0  0  0  0  0  0  0  0
    2.3212    1.1165   -0.8690 C   0  0  0  0  0  0  0  0  0  0  0  0
    3.6858    1.3477   -1.0670 C   0  0  0  0  0  0  0  0  0  0  0  0
    0.4193    0.2467    0.5226 C   0  0  0  0  0  0  0  0  0  0  0  0
   -0.1659    0.5973    1.7446 C   0  0  0  0  0  0  0  0  0  0  0  0
   -1.4524    0.3754    1.9698 O   0  0  0  0  0  0  0  0  0  0  0  0
   -2.2617   -0.1610    1.0644 C   0  0  0  0  0  0  0  0  0  0  0  0
   -3.5980   -0.3801    1.4081 C   0  0  0  0  0  0  0  0  0  0  0  0
   -4.4770   -0.9576    0.4953 C   0  0  0  0  0  0  0  0  0  0  0  0
   -5.8000   -1.1876    0.8665 O   0  0  0  0  0  0  0  0  0  0  0  0
   -4.0278   -1.2919   -0.7848 C   0  0  0  0  0  0  0  0  0  0  0  0
   -2.7044   -1.0481   -1.1720 C   0  0  0  0  0  0  0  0  0  0  0  0
   -2.3823   -1.3233   -2.5042 O   0  0  0  0  0  0  0  0  0  0  0  0
   -1.7801   -0.5152   -0.2242 C   0  0  0  0  0  0  0  0  0  0  0  0
   -0.3935   -0.3463   -0.4632 C   0  0  0  0  0  0  0  0  0  0  0  0
    0.1408   -0.7665   -1.5236 O   0  0  0  0  0  0  0  0  0  0  0  0
    6.3293    1.6292   -1.1187 H   0  0  0  0  0  0  0  0  0  0  0  0
    4.8854    0.0289    1.8315 H   0  0  0  0  0  0  0  0  0  0  0  0
    2.4860   -0.3893    2.1881 H   0  0  0  0  0  0  0  0  0  0  0  0
    1.6173    1.4433   -1.6244 H   0  0  0  0  0  0  0  0  0  0  0  0
    4.0193    1.8352   -1.9743 H   0  0  0  0  0  0  0  0  0  0  0  0
    0.4282    1.0552    2.5252 H   0  0  0  0  0  0  0  0  0  0  0  0
   -3.9514   -0.1123    2.3965 H   0  0  0  0  0  0  0  0  0  0  0  0
   -6.4658   -1.6036    0.2257 H   0  0  0  0  0  0  0  0  0  0  0  0
   -4.7218   -1.7160   -1.5001 H   0  0  0  0  0  0  0  0  0  0  0  0
   -1.5905   -0.9348   -2.9942 H   0  0  0  0  0  0  0  0  0  0  0  0
  1  2  1  0
  2  3  2  0
  3  4  1  0
  4  5  2  0
  5  6  1  0
  6  7  2  0
  5  8  1  0
  8  9  2  0
  9 10  1  0
 10 11  1  0
 11 12  2  0
 12 13  1  0
 13 14  1  0
 13 15  2  0
 15 16  1  0
 16 17  1  0
 16 18  2  0
 18 19  1  0
 19 20  2  0
  7  2  1  0
 19  8  1  0
 18 11  1  0
  1 21  1  0
  3 22  1  0
  4 23  1  0
  6 24  1  0
  7 25  1  0
  9 26  1  0
 12 27  1  0
 14 28  1  0
 15 29  1  0
 17 30  1  0
M  END
>  <LIG_ID>  (257) 
256

>  <_smiles>  (257) 
OC1=CC=C(C=C1)C1=COC2=CC(O)=CC(O)=C2C1=O

>  <_name>  (257) 
Genistein

>  <_molecular_weight>  (257) 
270.237

>  <_formula>  (257) 
C15H10O5

>  <_logP>  (257) 
2.576800000000001

>  <_molecular_wt_calculated>  (257) 
270.2399999999998

>  <_havy_atom_count>  (257) 
20

>  <_hydrogen_acceptors>  (257) 
5

>  <_hydrogen_donors>  (257) 
3

>  <_rotatable_bonds>  (257) 
4

>  <_amide_bonds>  (257) 
0

>  <_ring_count>  (257) 
3

$$$$
Biochanin A
     RDKit          3D

 33 35  0  0  0  0  0  0  0  0999 V2000
   -6.1251   -0.3988    1.5595 C   0  0  0  0  0  0  0  0  0  0  0  0
   -5.3910   -0.7908    0.4042 O   0  0  0  0  0  0  0  0  0  0  0  0
   -4.0216   -0.5509    0.2171 C   0  0  0  0  0  0  0  0  0  0  0  0
   -3.4251   -0.9918   -0.9692 C   0  0  0  0  0  0  0  0  0  0  0  0
   -2.0640   -0.7775   -1.2034 C   0  0  0  0  0  0  0  0  0  0  0  0
   -1.2724   -0.1199   -0.2470 C   0  0  0  0  0  0  0  0  0  0  0  0
   -1.8718    0.3288    0.9421 C   0  0  0  0  0  0  0  0  0  0  0  0
   -3.2336    0.1146    1.1749 C   0  0  0  0  0  0  0  0  0  0  0  0
    0.1724    0.1147   -0.5006 C   0  0  0  0  0  0  0  0  0  0  0  0
    0.5854    0.6391   -1.7307 C   0  0  0  0  0  0  0  0  0  0  0  0
    1.8698    0.8383   -1.9869 O   0  0  0  0  0  0  0  0  0  0  0  0
    2.8298    0.5822   -1.1065 C   0  0  0  0  0  0  0  0  0  0  0  0
    4.1575    0.8005   -1.4823 C   0  0  0  0  0  0  0  0  0  0  0  0
    5.1979    0.5265   -0.5933 C   0  0  0  0  0  0  0  0  0  0  0  0
    6.5247    0.7218   -0.9709 O   0  0  0  0  0  0  0  0  0  0  0  0
    4.9090    0.0615    0.6889 C   0  0  0  0  0  0  0  0  0  0  0  0
    3.5867   -0.1296    1.1082 C   0  0  0  0  0  0  0  0  0  0  0  0
    3.4020   -0.4994    2.4436 O   0  0  0  0  0  0  0  0  0  0  0  0
    2.5178    0.0870    0.1878 C   0  0  0  0  0  0  0  0  0  0  0  0
    1.1557   -0.1943    0.4595 C   0  0  0  0  0  0  0  0  0  0  0  0
    0.8090   -0.7677    1.5260 O   0  0  0  0  0  0  0  0  0  0  0  0
   -7.1819   -0.7146    1.4420 H   0  0  0  0  0  0  0  0  0  0  0  0
   -6.0947    0.7053    1.6747 H   0  0  0  0  0  0  0  0  0  0  0  0
   -5.7057   -0.8894    2.4631 H   0  0  0  0  0  0  0  0  0  0  0  0
   -4.0203   -1.5051   -1.7139 H   0  0  0  0  0  0  0  0  0  0  0  0
   -1.6257   -1.1371   -2.1262 H   0  0  0  0  0  0  0  0  0  0  0  0
   -1.2888    0.8592    1.6849 H   0  0  0  0  0  0  0  0  0  0  0  0
   -3.6638    0.4737    2.0997 H   0  0  0  0  0  0  0  0  0  0  0  0
   -0.1426    0.8885   -2.4921 H   0  0  0  0  0  0  0  0  0  0  0  0
    4.3803    1.1718   -2.4752 H   0  0  0  0  0  0  0  0  0  0  0  0
    6.7686    1.0614   -1.8940 H   0  0  0  0  0  0  0  0  0  0  0  0
    5.7213   -0.1231    1.3813 H   0  0  0  0  0  0  0  0  0  0  0  0
    2.5403   -0.3850    2.9558 H   0  0  0  0  0  0  0  0  0  0  0  0
  1  2  1  0
  2  3  1  0
  3  4  2  0
  4  5  1  0
  5  6  2  0
  6  7  1  0
  7  8  2  0
  6  9  1  0
  9 10  2  0
 10 11  1  0
 11 12  1  0
 12 13  2  0
 13 14  1  0
 14 15  1  0
 14 16  2  0
 16 17  1  0
 17 18  1  0
 17 19  2  0
 19 20  1  0
 20 21  2  0
  8  3  1  0
 20  9  1  0
 19 12  1  0
  1 22  1  0
  1 23  1  0
  1 24  1  0
  4 25  1  0
  5 26  1  0
  7 27  1  0
  8 28  1  0
 10 29  1  0
 13 30  1  0
 15 31  1  0
 16 32  1  0
 18 33  1  0
M  END
>  <LIG_ID>  (258) 
257

>  <_smiles>  (258) 
COC1=CC=C(C=C1)C1=COC2=CC(O)=CC(O)=C2C1=O

>  <_name>  (258) 
Biochanin A

>  <_molecular_weight>  (258) 
284.263

>  <_formula>  (258) 
C16H12O5

>  <_logP>  (258) 
2.8798000000000017

>  <_molecular_wt_calculated>  (258) 
284.26699999999977

>  <_havy_atom_count>  (258) 
21

>  <_hydrogen_acceptors>  (258) 
5

>  <_hydrogen_donors>  (258) 
2

>  <_rotatable_bonds>  (258) 
5

>  <_amide_bonds>  (258) 
0

>  <_ring_count>  (258) 
3

$$$$
Glycitein
     RDKit          3D

 33 35  0  0  0  0  0  0  0  0999 V2000
   -4.8774    0.3839   -2.1959 C   0  0  0  0  0  0  0  0  0  0  0  0
   -4.8710    0.2129   -0.7823 O   0  0  0  0  0  0  0  0  0  0  0  0
   -3.7120    0.0711   -0.0028 C   0  0  0  0  0  0  0  0  0  0  0  0
   -3.8568   -0.0903    1.3826 C   0  0  0  0  0  0  0  0  0  0  0  0
   -5.1330   -0.1055    1.9432 O   0  0  0  0  0  0  0  0  0  0  0  0
   -2.7274   -0.2357    2.1986 C   0  0  0  0  0  0  0  0  0  0  0  0
   -1.4464   -0.2210    1.6415 C   0  0  0  0  0  0  0  0  0  0  0  0
   -0.3866   -0.3626    2.4299 O   0  0  0  0  0  0  0  0  0  0  0  0
    0.8583   -0.3556    1.9672 C   0  0  0  0  0  0  0  0  0  0  0  0
    1.1177   -0.1940    0.5969 C   0  0  0  0  0  0  0  0  0  0  0  0
    0.0209   -0.0514   -0.2749 C   0  0  0  0  0  0  0  0  0  0  0  0
    0.2074    0.0613   -1.5184 O   0  0  0  0  0  0  0  0  0  0  0  0
   -1.2843   -0.0579    0.2492 C   0  0  0  0  0  0  0  0  0  0  0  0
   -2.4209    0.0862   -0.5676 C   0  0  0  0  0  0  0  0  0  0  0  0
    2.5186   -0.1822    0.1053 C   0  0  0  0  0  0  0  0  0  0  0  0
    2.9645    0.8285   -0.7650 C   0  0  0  0  0  0  0  0  0  0  0  0
    4.2874    0.8395   -1.2174 C   0  0  0  0  0  0  0  0  0  0  0  0
    5.1818   -0.1559   -0.8029 C   0  0  0  0  0  0  0  0  0  0  0  0
    6.5018   -0.1553   -1.2478 O   0  0  0  0  0  0  0  0  0  0  0  0
    4.7468   -1.1598    0.0675 C   0  0  0  0  0  0  0  0  0  0  0  0
    3.4248   -1.1732    0.5223 C   0  0  0  0  0  0  0  0  0  0  0  0
   -4.4088   -0.4939   -2.6890 H   0  0  0  0  0  0  0  0  0  0  0  0
   -4.3345    1.3130   -2.4707 H   0  0  0  0  0  0  0  0  0  0  0  0
   -5.9265    0.4693   -2.5458 H   0  0  0  0  0  0  0  0  0  0  0  0
   -5.2734   -0.2203    2.9402 H   0  0  0  0  0  0  0  0  0  0  0  0
   -2.8455   -0.3609    3.2679 H   0  0  0  0  0  0  0  0  0  0  0  0
    1.6751   -0.4685    2.6685 H   0  0  0  0  0  0  0  0  0  0  0  0
   -2.2994    0.2103   -1.6353 H   0  0  0  0  0  0  0  0  0  0  0  0
    2.2944    1.6181   -1.0812 H   0  0  0  0  0  0  0  0  0  0  0  0
    4.6172    1.6244   -1.8861 H   0  0  0  0  0  0  0  0  0  0  0  0
    6.8476    0.5586   -1.8785 H   0  0  0  0  0  0  0  0  0  0  0  0
    5.4339   -1.9314    0.3911 H   0  0  0  0  0  0  0  0  0  0  0  0
    3.1054   -1.9644    1.1895 H   0  0  0  0  0  0  0  0  0  0  0  0
  1  2  1  0
  2  3  1  0
  3  4  2  0
  4  5  1  0
  4  6  1  0
  6  7  2  0
  7  8  1  0
  8  9  1  0
  9 10  2  0
 10 11  1  0
 11 12  2  0
 11 13  1  0
 13 14  2  0
 10 15  1  0
 15 16  2  0
 16 17  1  0
 17 18  2  0
 18 19  1  0
 18 20  1  0
 20 21  2  0
 14  3  1  0
 21 15  1  0
 13  7  1  0
  1 22  1  0
  1 23  1  0
  1 24  1  0
  5 25  1  0
  6 26  1  0
  9 27  1  0
 14 28  1  0
 16 29  1  0
 17 30  1  0
 19 31  1  0
 20 32  1  0
 21 33  1  0
M  END
>  <LIG_ID>  (259) 
258

>  <_smiles>  (259) 
COC1=C(O)C=C2OC=C(C(=O)C2=C1)C1=CC=C(O)C=C1

>  <_name>  (259) 
Glycitein

>  <_molecular_weight>  (259) 
284.263

>  <_formula>  (259) 
C16H12O5

>  <_logP>  (259) 
2.8798000000000004

>  <_molecular_wt_calculated>  (259) 
284.26699999999977

>  <_havy_atom_count>  (259) 
21

>  <_hydrogen_acceptors>  (259) 
5

>  <_hydrogen_donors>  (259) 
2

>  <_rotatable_bonds>  (259) 
5

>  <_amide_bonds>  (259) 
0

>  <_ring_count>  (259) 
3

$$$$
Glycitin
     RDKit          3D

 54 57  0  0  0  0  0  0  0  0999 V2000
   -1.1791    2.8385   -0.9387 C   0  0  0  0  0  0  0  0  0  0  0  0
   -1.3927    1.4319   -0.8803 O   0  0  0  0  0  0  0  0  0  0  0  0
   -0.3996    0.4735   -0.6256 C   0  0  0  0  0  0  0  0  0  0  0  0
   -0.7335   -0.9062   -0.6043 C   0  0  0  0  0  0  0  0  0  0  0  0
   -2.0336   -1.4104   -0.7995 O   0  0  0  0  0  0  0  0  0  0  0  0
   -3.2452   -0.6604   -0.8705 C   0  0  2  0  0  0  0  0  0  0  0  0
   -3.4346    0.0241    0.3559 O   0  0  0  0  0  0  0  0  0  0  0  0
   -4.5651    0.8758    0.2816 C   0  0  2  0  0  0  0  0  0  0  0  0
   -4.6252    1.7144    1.5668 C   0  0  0  0  0  0  0  0  0  0  0  0
   -3.4468    2.4583    1.7213 O   0  0  0  0  0  0  0  0  0  0  0  0
   -5.8540    0.0388    0.1153 C   0  0  1  0  0  0  0  0  0  0  0  0
   -6.9599    0.8957   -0.0152 O   0  0  0  0  0  0  0  0  0  0  0  0
   -5.7395   -0.8522   -1.1344 C   0  0  2  0  0  0  0  0  0  0  0  0
   -6.8216   -1.7472   -1.1665 O   0  0  0  0  0  0  0  0  0  0  0  0
   -4.4139   -1.6325   -1.1141 C   0  0  1  0  0  0  0  0  0  0  0  0
   -4.2439   -2.2898   -2.3440 O   0  0  0  0  0  0  0  0  0  0  0  0
    0.2734   -1.8531   -0.3827 C   0  0  0  0  0  0  0  0  0  0  0  0
    1.5953   -1.4647   -0.1641 C   0  0  0  0  0  0  0  0  0  0  0  0
    2.5244   -2.3907    0.0463 O   0  0  0  0  0  0  0  0  0  0  0  0
    3.7998   -2.0914    0.2648 C   0  0  0  0  0  0  0  0  0  0  0  0
    4.2333   -0.7565    0.2855 C   0  0  0  0  0  0  0  0  0  0  0  0
    3.2804    0.2546    0.0555 C   0  0  0  0  0  0  0  0  0  0  0  0
    3.6331    1.4665    0.0299 O   0  0  0  0  0  0  0  0  0  0  0  0
    1.9370   -0.0991   -0.1675 C   0  0  0  0  0  0  0  0  0  0  0  0
    0.9383    0.8611   -0.3999 C   0  0  0  0  0  0  0  0  0  0  0  0
    5.6628   -0.4460    0.5395 C   0  0  0  0  0  0  0  0  0  0  0  0
    6.6725   -1.1354   -0.1552 C   0  0  0  0  0  0  0  0  0  0  0  0
    8.0196   -0.8509    0.0881 C   0  0  0  0  0  0  0  0  0  0  0  0
    8.3745    0.1212    1.0323 C   0  0  0  0  0  0  0  0  0  0  0  0
    9.7134    0.4129    1.2829 O   0  0  0  0  0  0  0  0  0  0  0  0
    7.3759    0.8052    1.7320 C   0  0  0  0  0  0  0  0  0  0  0  0
    6.0279    0.5236    1.4905 C   0  0  0  0  0  0  0  0  0  0  0  0
   -0.8084    3.2094    0.0401 H   0  0  0  0  0  0  0  0  0  0  0  0
   -2.1418    3.3402   -1.1662 H   0  0  0  0  0  0  0  0  0  0  0  0
   -0.4542    3.0824   -1.7437 H   0  0  0  0  0  0  0  0  0  0  0  0
   -3.1813    0.0426   -1.7331 H   0  0  0  0  0  0  0  0  0  0  0  0
   -4.4666    1.5847   -0.5748 H   0  0  0  0  0  0  0  0  0  0  0  0
   -4.7337    1.0426    2.4452 H   0  0  0  0  0  0  0  0  0  0  0  0
   -5.5062    2.3961    1.5498 H   0  0  0  0  0  0  0  0  0  0  0  0
   -3.5152    3.2305    1.1012 H   0  0  0  0  0  0  0  0  0  0  0  0
   -5.9743   -0.6096    1.0166 H   0  0  0  0  0  0  0  0  0  0  0  0
   -7.7652    0.3647    0.2195 H   0  0  0  0  0  0  0  0  0  0  0  0
   -5.7639   -0.1945   -2.0370 H   0  0  0  0  0  0  0  0  0  0  0  0
   -6.9108   -2.0585   -2.1050 H   0  0  0  0  0  0  0  0  0  0  0  0
   -4.4507   -2.3761   -0.2820 H   0  0  0  0  0  0  0  0  0  0  0  0
   -3.6100   -3.0374   -2.1867 H   0  0  0  0  0  0  0  0  0  0  0  0
    0.0210   -2.9066   -0.3740 H   0  0  0  0  0  0  0  0  0  0  0  0
    4.5020   -2.8971    0.4365 H   0  0  0  0  0  0  0  0  0  0  0  0
    1.2059    1.9088   -0.4081 H   0  0  0  0  0  0  0  0  0  0  0  0
    6.4176   -1.8843   -0.8949 H   0  0  0  0  0  0  0  0  0  0  0  0
    8.7861   -1.3857   -0.4583 H   0  0  0  0  0  0  0  0  0  0  0  0
   10.4602   -0.0656    0.7928 H   0  0  0  0  0  0  0  0  0  0  0  0
    7.6449    1.5529    2.4673 H   0  0  0  0  0  0  0  0  0  0  0  0
    5.2711    1.0508    2.0579 H   0  0  0  0  0  0  0  0  0  0  0  0
  1  2  1  0
  2  3  1  0
  3  4  2  0
  4  5  1  0
  5  6  1  0
  6  7  1  0
  7  8  1  0
  8  9  1  0
  9 10  1  0
  8 11  1  0
 11 12  1  0
 11 13  1  0
 13 14  1  0
 13 15  1  0
 15 16  1  0
  4 17  1  0
 17 18  2  0
 18 19  1  0
 19 20  1  0
 20 21  2  0
 21 22  1  0
 22 23  2  0
 22 24  1  0
 24 25  2  0
 21 26  1  0
 26 27  2  0
 27 28  1  0
 28 29  2  0
 29 30  1  0
 29 31  1  0
 31 32  2  0
 25  3  1  0
 32 26  1  0
 15  6  1  0
 24 18  1  0
  1 33  1  0
  1 34  1  0
  1 35  1  0
  6 36  1  6
  8 37  1  6
  9 38  1  0
  9 39  1  0
 10 40  1  0
 11 41  1  1
 12 42  1  0
 13 43  1  6
 14 44  1  0
 15 45  1  1
 16 46  1  0
 17 47  1  0
 20 48  1  0
 25 49  1  0
 27 50  1  0
 28 51  1  0
 30 52  1  0
 31 53  1  0
 32 54  1  0
M  END
>  <LIG_ID>  (260) 
259

>  <_smiles>  (260) 
COC1=C(O[C@@H]2O[C@H](CO)[C@@H](O)[C@H](O)[C@H]2O)C=C2OC=C(C(=O)C2=C1)C1=CC=C(O)C=C1

>  <_name>  (260) 
Glycitin

>  <_molecular_weight>  (260) 
446.404

>  <_formula>  (260) 
C22H22O10

>  <_logP>  (260) 
0.35289999999999994

>  <_molecular_wt_calculated>  (260) 
446.40799999999984

>  <_havy_atom_count>  (260) 
32

>  <_hydrogen_acceptors>  (260) 
10

>  <_hydrogen_donors>  (260) 
5

>  <_rotatable_bonds>  (260) 
11

>  <_amide_bonds>  (260) 
0

>  <_ring_count>  (260) 
4

$$$$
6''-O-Acetyldaidzin
     RDKit          3D

 55 58  0  0  0  0  0  0  0  0999 V2000
   -6.4028    3.7041    0.9395 C   0  0  0  0  0  0  0  0  0  0  0  0
   -5.2723    2.7575    0.7210 C   0  0  0  0  0  0  0  0  0  0  0  0
   -4.4215    2.5834    1.6353 O   0  0  0  0  0  0  0  0  0  0  0  0
   -5.1912    2.0499   -0.4841 O   0  0  0  0  0  0  0  0  0  0  0  0
   -4.2069    1.0519   -0.7596 C   0  0  0  0  0  0  0  0  0  0  0  0
   -4.7973   -0.3643   -0.5714 C   0  0  1  0  0  0  0  0  0  0  0  0
   -4.1236   -1.3428   -1.3575 O   0  0  0  0  0  0  0  0  0  0  0  0
   -2.8617   -1.7404   -0.8386 C   0  0  1  0  0  0  0  0  0  0  0  0
   -1.9296   -0.6563   -0.8943 O   0  0  0  0  0  0  0  0  0  0  0  0
   -0.5334   -0.7547   -0.7789 C   0  0  0  0  0  0  0  0  0  0  0  0
    0.1999    0.4335   -0.6850 C   0  0  0  0  0  0  0  0  0  0  0  0
    1.5930    0.4061   -0.5663 C   0  0  0  0  0  0  0  0  0  0  0  0
    2.2755   -0.8291   -0.5456 C   0  0  0  0  0  0  0  0  0  0  0  0
    1.5412   -2.0235   -0.6442 C   0  0  0  0  0  0  0  0  0  0  0  0
    0.1488   -1.9869   -0.7625 C   0  0  0  0  0  0  0  0  0  0  0  0
    3.6758   -0.8177   -0.4213 C   0  0  0  0  0  0  0  0  0  0  0  0
    4.3190   -1.9027   -0.3685 O   0  0  0  0  0  0  0  0  0  0  0  0
    4.3523    0.4144   -0.3339 C   0  0  0  0  0  0  0  0  0  0  0  0
    3.5890    1.5927   -0.3582 C   0  0  0  0  0  0  0  0  0  0  0  0
    2.2663    1.5473   -0.4716 O   0  0  0  0  0  0  0  0  0  0  0  0
    5.8301    0.4922   -0.2135 C   0  0  0  0  0  0  0  0  0  0  0  0
    6.4197    1.3161    0.7615 C   0  0  0  0  0  0  0  0  0  0  0  0
    7.8111    1.3977    0.8717 C   0  0  0  0  0  0  0  0  0  0  0  0
    8.6303    0.6619    0.0056 C   0  0  0  0  0  0  0  0  0  0  0  0
   10.0177    0.7354    0.1060 O   0  0  0  0  0  0  0  0  0  0  0  0
    8.0508   -0.1535   -0.9711 C   0  0  0  0  0  0  0  0  0  0  0  0
    6.6597   -0.2379   -1.0833 C   0  0  0  0  0  0  0  0  0  0  0  0
   -2.9758   -2.3266    0.5833 C   0  0  2  0  0  0  0  0  0  0  0  0
   -3.6773   -3.5421    0.5245 O   0  0  0  0  0  0  0  0  0  0  0  0
   -3.6806   -1.3402    1.5335 C   0  0  1  0  0  0  0  0  0  0  0  0
   -2.8234   -0.2708    1.8438 O   0  0  0  0  0  0  0  0  0  0  0  0
   -4.9790   -0.7951    0.9114 C   0  0  2  0  0  0  0  0  0  0  0  0
   -6.0178   -1.7374    1.0414 O   0  0  0  0  0  0  0  0  0  0  0  0
   -7.1950    3.2023    1.5329 H   0  0  0  0  0  0  0  0  0  0  0  0
   -6.0471    4.6024    1.4868 H   0  0  0  0  0  0  0  0  0  0  0  0
   -6.8255    4.0229   -0.0363 H   0  0  0  0  0  0  0  0  0  0  0  0
   -3.9054    1.1651   -1.8226 H   0  0  0  0  0  0  0  0  0  0  0  0
   -3.2998    1.2187   -0.1448 H   0  0  0  0  0  0  0  0  0  0  0  0
   -5.8235   -0.3006   -0.9968 H   0  0  0  0  0  0  0  0  0  0  0  0
   -2.4968   -2.5443   -1.5123 H   0  0  0  0  0  0  0  0  0  0  0  0
   -0.3188    1.3844   -0.6993 H   0  0  0  0  0  0  0  0  0  0  0  0
    2.0393   -2.9853   -0.6324 H   0  0  0  0  0  0  0  0  0  0  0  0
   -0.3816   -2.9246   -0.8419 H   0  0  0  0  0  0  0  0  0  0  0  0
    4.0731    2.5588   -0.2931 H   0  0  0  0  0  0  0  0  0  0  0  0
    5.8029    1.8858    1.4456 H   0  0  0  0  0  0  0  0  0  0  0  0
    8.2511    2.0318    1.6308 H   0  0  0  0  0  0  0  0  0  0  0  0
   10.4679    1.3175    0.8027 H   0  0  0  0  0  0  0  0  0  0  0  0
    8.6793   -0.7192   -1.6471 H   0  0  0  0  0  0  0  0  0  0  0  0
    6.2319   -0.8599   -1.8597 H   0  0  0  0  0  0  0  0  0  0  0  0
   -1.9521   -2.5275    0.9733 H   0  0  0  0  0  0  0  0  0  0  0  0
   -3.5022   -4.0188    1.3779 H   0  0  0  0  0  0  0  0  0  0  0  0
   -3.9447   -1.8687    2.4801 H   0  0  0  0  0  0  0  0  0  0  0  0
   -2.1432   -0.6188    2.4780 H   0  0  0  0  0  0  0  0  0  0  0  0
   -5.2946    0.0878    1.5044 H   0  0  0  0  0  0  0  0  0  0  0  0
   -5.9008   -2.4317    0.3430 H   0  0  0  0  0  0  0  0  0  0  0  0
  1  2  1  0
  2  3  2  0
  2  4  1  0
  4  5  1  0
  5  6  1  0
  6  7  1  0
  7  8  1  0
  8  9  1  0
  9 10  1  0
 10 11  2  0
 11 12  1  0
 12 13  2  0
 13 14  1  0
 14 15  2  0
 13 16  1  0
 16 17  2  0
 16 18  1  0
 18 19  2  0
 19 20  1  0
 18 21  1  0
 21 22  2  0
 22 23  1  0
 23 24  2  0
 24 25  1  0
 24 26  1  0
 26 27  2  0
  8 28  1  0
 28 29  1  0
 28 30  1  0
 30 31  1  0
 30 32  1  0
 32 33  1  0
 32  6  1  0
 15 10  1  0
 27 21  1  0
 20 12  1  0
  1 34  1  0
  1 35  1  0
  1 36  1  0
  5 37  1  0
  5 38  1  0
  6 39  1  6
  8 40  1  6
 11 41  1  0
 14 42  1  0
 15 43  1  0
 19 44  1  0
 22 45  1  0
 23 46  1  0
 25 47  1  0
 26 48  1  0
 27 49  1  0
 28 50  1  1
 29 51  1  0
 30 52  1  1
 31 53  1  0
 32 54  1  1
 33 55  1  0
M  END
>  <LIG_ID>  (261) 
260

>  <_smiles>  (261) 
CC(=O)OC[C@H]1O[C@@H](OC2=CC3=C(C=C2)C(=O)C(=CO3)C2=CC=C(O)C=C2)[C@H](O)[C@@H](O)[C@@H]1O

>  <_name>  (261) 
6''-O-Acetyldaidzin

>  <_molecular_weight>  (261) 
458.415

>  <_formula>  (261) 
C23H22O10

>  <_logP>  (261) 
0.9150999999999994

>  <_molecular_wt_calculated>  (261) 
458.41899999999987

>  <_havy_atom_count>  (261) 
33

>  <_hydrogen_acceptors>  (261) 
10

>  <_hydrogen_donors>  (261) 
4

>  <_rotatable_bonds>  (261) 
10

>  <_amide_bonds>  (261) 
0

>  <_ring_count>  (261) 
4

$$$$
6''-O-Malonylgenistin
     RDKit          3D

 59 62  0  0  0  0  0  0  0  0999 V2000
   -5.8410   -2.3863    1.5149 O   0  0  0  0  0  0  0  0  0  0  0  0
   -4.7016   -2.3060    0.6977 C   0  0  1  0  0  0  0  0  0  0  0  0
   -4.9386   -1.2604   -0.4060 C   0  0  2  0  0  0  0  0  0  0  0  0
   -5.9269   -1.7218   -1.2917 O   0  0  0  0  0  0  0  0  0  0  0  0
   -3.6213   -1.0117   -1.1784 C   0  0  1  0  0  0  0  0  0  0  0  0
   -3.7842    0.0463   -2.2818 C   0  0  0  0  0  0  0  0  0  0  0  0
   -4.0033    1.3424   -1.7244 O   0  0  0  0  0  0  0  0  0  0  0  0
   -5.2707    1.8989   -1.5197 C   0  0  0  0  0  0  0  0  0  0  0  0
   -6.3064    1.3351   -1.9675 O   0  0  0  0  0  0  0  0  0  0  0  0
   -5.3963    3.1468   -0.7106 C   0  0  0  0  0  0  0  0  0  0  0  0
   -5.3255    2.8082    0.7427 C   0  0  0  0  0  0  0  0  0  0  0  0
   -6.4793    2.4327    1.4233 O   0  0  0  0  0  0  0  0  0  0  0  0
   -4.2158    2.8158    1.3400 O   0  0  0  0  0  0  0  0  0  0  0  0
   -2.6033   -0.5807   -0.2904 O   0  0  0  0  0  0  0  0  0  0  0  0
   -2.2727   -1.6105    0.6253 C   0  0  1  0  0  0  0  0  0  0  0  0
   -1.1763   -1.1807    1.4309 O   0  0  0  0  0  0  0  0  0  0  0  0
    0.1148   -0.9087    0.9513 C   0  0  0  0  0  0  0  0  0  0  0  0
    0.4719   -1.0749   -0.3989 C   0  0  0  0  0  0  0  0  0  0  0  0
    1.7732   -0.7888   -0.8374 C   0  0  0  0  0  0  0  0  0  0  0  0
    2.0927   -0.9644   -2.1846 O   0  0  0  0  0  0  0  0  0  0  0  0
    2.7421   -0.3296    0.0859 C   0  0  0  0  0  0  0  0  0  0  0  0
    2.3753   -0.1670    1.4426 C   0  0  0  0  0  0  0  0  0  0  0  0
    3.2597    0.2637    2.3348 O   0  0  0  0  0  0  0  0  0  0  0  0
    4.5143    0.5583    2.0197 C   0  0  0  0  0  0  0  0  0  0  0  0
    4.9759    0.4256    0.7027 C   0  0  0  0  0  0  0  0  0  0  0  0
    4.0696   -0.0169   -0.2803 C   0  0  0  0  0  0  0  0  0  0  0  0
    4.4451   -0.1107   -1.4813 O   0  0  0  0  0  0  0  0  0  0  0  0
    6.3871    0.7549    0.3786 C   0  0  0  0  0  0  0  0  0  0  0  0
    6.9554    1.9597    0.8287 C   0  0  0  0  0  0  0  0  0  0  0  0
    8.2864    2.2684    0.5323 C   0  0  0  0  0  0  0  0  0  0  0  0
    9.0674    1.3748   -0.2122 C   0  0  0  0  0  0  0  0  0  0  0  0
   10.3946    1.6717   -0.5135 O   0  0  0  0  0  0  0  0  0  0  0  0
    8.5109    0.1717   -0.6565 C   0  0  0  0  0  0  0  0  0  0  0  0
    7.1799   -0.1396   -0.3623 C   0  0  0  0  0  0  0  0  0  0  0  0
    1.0738   -0.4569    1.8604 C   0  0  0  0  0  0  0  0  0  0  0  0
   -3.4746   -1.9073    1.5427 C   0  0  2  0  0  0  0  0  0  0  0  0
   -3.1575   -2.9105    2.4758 O   0  0  0  0  0  0  0  0  0  0  0  0
   -5.7929   -3.2564    1.9904 H   0  0  0  0  0  0  0  0  0  0  0  0
   -4.5137   -3.2927    0.2096 H   0  0  0  0  0  0  0  0  0  0  0  0
   -5.2621   -0.3074    0.0736 H   0  0  0  0  0  0  0  0  0  0  0  0
   -6.8043   -1.5401   -0.8642 H   0  0  0  0  0  0  0  0  0  0  0  0
   -3.3162   -1.9557   -1.6900 H   0  0  0  0  0  0  0  0  0  0  0  0
   -4.5915   -0.2315   -2.9939 H   0  0  0  0  0  0  0  0  0  0  0  0
   -2.8399    0.0821   -2.8657 H   0  0  0  0  0  0  0  0  0  0  0  0
   -6.3627    3.6501   -0.9293 H   0  0  0  0  0  0  0  0  0  0  0  0
   -4.5751    3.8459   -0.9784 H   0  0  0  0  0  0  0  0  0  0  0  0
   -6.4443    2.1772    2.4030 H   0  0  0  0  0  0  0  0  0  0  0  0
   -1.9729   -2.5424    0.0903 H   0  0  0  0  0  0  0  0  0  0  0  0
   -0.2526   -1.4273   -1.1200 H   0  0  0  0  0  0  0  0  0  0  0  0
    1.4091   -1.2923   -2.8571 H   0  0  0  0  0  0  0  0  0  0  0  0
    5.1821    0.8966    2.8018 H   0  0  0  0  0  0  0  0  0  0  0  0
    6.3650    2.6667    1.3984 H   0  0  0  0  0  0  0  0  0  0  0  0
    8.7091    3.2022    0.8806 H   0  0  0  0  0  0  0  0  0  0  0  0
   10.8271    2.5349   -0.2055 H   0  0  0  0  0  0  0  0  0  0  0  0
    9.1119   -0.5253   -1.2267 H   0  0  0  0  0  0  0  0  0  0  0  0
    6.7745   -1.0856   -0.6992 H   0  0  0  0  0  0  0  0  0  0  0  0
    0.8039   -0.3281    2.9016 H   0  0  0  0  0  0  0  0  0  0  0  0
   -3.7193   -0.9793    2.1063 H   0  0  0  0  0  0  0  0  0  0  0  0
   -2.9299   -3.7333    1.9684 H   0  0  0  0  0  0  0  0  0  0  0  0
  1  2  1  0
  2  3  1  0
  3  4  1  0
  3  5  1  0
  5  6  1  0
  6  7  1  0
  7  8  1  0
  8  9  2  0
  8 10  1  0
 10 11  1  0
 11 12  1  0
 11 13  2  0
  5 14  1  0
 14 15  1  0
 15 16  1  0
 16 17  1  0
 17 18  2  0
 18 19  1  0
 19 20  1  0
 19 21  2  0
 21 22  1  0
 22 23  1  0
 23 24  1  0
 24 25  2  0
 25 26  1  0
 26 27  2  0
 25 28  1  0
 28 29  2  0
 29 30  1  0
 30 31  2  0
 31 32  1  0
 31 33  1  0
 33 34  2  0
 22 35  2  0
 15 36  1  0
 36 37  1  0
 36  2  1  0
 35 17  1  0
 26 21  1  0
 34 28  1  0
  1 38  1  0
  2 39  1  6
  3 40  1  1
  4 41  1  0
  5 42  1  6
  6 43  1  0
  6 44  1  0
 10 45  1  0
 10 46  1  0
 12 47  1  0
 15 48  1  6
 18 49  1  0
 20 50  1  0
 24 51  1  0
 29 52  1  0
 30 53  1  0
 32 54  1  0
 33 55  1  0
 34 56  1  0
 35 57  1  0
 36 58  1  1
 37 59  1  0
M  END
>  <LIG_ID>  (262) 
261

>  <_smiles>  (262) 
O[C@H]1[C@H](O)[C@@H](COC(=O)CC(O)=O)O[C@@H](OC2=CC(O)=C3C(OC=C(C3=O)C3=CC=C(O)C=C3)=C2)[C@@H]1O

>  <_name>  (262) 
6''-O-Malonylgenistin

>  <_molecular_weight>  (262) 
518.424

>  <_formula>  (262) 
C24H22O13

>  <_logP>  (262) 
0.07550000000000001

>  <_molecular_wt_calculated>  (262) 
518.4270000000004

>  <_havy_atom_count>  (262) 
37

>  <_hydrogen_acceptors>  (262) 
13

>  <_hydrogen_donors>  (262) 
6

>  <_rotatable_bonds>  (262) 
12

>  <_amide_bonds>  (262) 
0

>  <_ring_count>  (262) 
4

$$$$
Daidzin
     RDKit          3D

 50 53  0  0  0  0  0  0  0  0999 V2000
   -4.0756   -1.9567   -1.8254 O   0  0  0  0  0  0  0  0  0  0  0  0
   -4.0804   -2.2892   -0.4608 C   0  0  0  0  0  0  0  0  0  0  0  0
   -4.2353   -1.0321    0.4057 C   0  0  1  0  0  0  0  0  0  0  0  0
   -3.2467   -0.0898    0.0338 O   0  0  0  0  0  0  0  0  0  0  0  0
   -3.1277    0.9158    1.0290 C   0  0  1  0  0  0  0  0  0  0  0  0
   -2.1831    1.8896    0.5833 O   0  0  0  0  0  0  0  0  0  0  0  0
   -0.8218    1.6421    0.3447 C   0  0  0  0  0  0  0  0  0  0  0  0
   -0.2286    0.3844    0.5688 C   0  0  0  0  0  0  0  0  0  0  0  0
    1.1329    0.1886    0.3126 C   0  0  0  0  0  0  0  0  0  0  0  0
    1.9224    1.2539   -0.1723 C   0  0  0  0  0  0  0  0  0  0  0  0
    1.3275    2.5085   -0.3906 C   0  0  0  0  0  0  0  0  0  0  0  0
   -0.0332    2.6950   -0.1327 C   0  0  0  0  0  0  0  0  0  0  0  0
    3.2870    1.0190   -0.4150 C   0  0  0  0  0  0  0  0  0  0  0  0
    4.0317    1.9545   -0.8199 O   0  0  0  0  0  0  0  0  0  0  0  0
    3.8204   -0.2632   -0.1811 C   0  0  0  0  0  0  0  0  0  0  0  0
    2.9600   -1.2600    0.3065 C   0  0  0  0  0  0  0  0  0  0  0  0
    1.6760   -1.0041    0.5302 O   0  0  0  0  0  0  0  0  0  0  0  0
    5.2502   -0.5765   -0.4301 C   0  0  0  0  0  0  0  0  0  0  0  0
    6.0075   -1.2533    0.5423 C   0  0  0  0  0  0  0  0  0  0  0  0
    7.3518   -1.5571    0.3070 C   0  0  0  0  0  0  0  0  0  0  0  0
    7.9542   -1.1937   -0.9044 C   0  0  0  0  0  0  0  0  0  0  0  0
    9.2928   -1.4912   -1.1498 O   0  0  0  0  0  0  0  0  0  0  0  0
    7.2051   -0.5271   -1.8786 C   0  0  0  0  0  0  0  0  0  0  0  0
    5.8607   -0.2212   -1.6461 C   0  0  0  0  0  0  0  0  0  0  0  0
   -4.4878    1.6241    1.3105 C   0  0  2  0  0  0  0  0  0  0  0  0
   -4.8731    1.4710    2.6553 O   0  0  0  0  0  0  0  0  0  0  0  0
   -5.6050    1.1330    0.3594 C   0  0  1  0  0  0  0  0  0  0  0  0
   -5.3779    1.6463   -0.9301 O   0  0  0  0  0  0  0  0  0  0  0  0
   -5.6542   -0.4133    0.2781 C   0  0  2  0  0  0  0  0  0  0  0  0
   -6.4737   -0.9293    1.2970 O   0  0  0  0  0  0  0  0  0  0  0  0
   -4.9654   -2.2011   -2.1909 H   0  0  0  0  0  0  0  0  0  0  0  0
   -4.8842   -3.0241   -0.2184 H   0  0  0  0  0  0  0  0  0  0  0  0
   -3.1097   -2.7721   -0.2181 H   0  0  0  0  0  0  0  0  0  0  0  0
   -4.0702   -1.3661    1.4587 H   0  0  0  0  0  0  0  0  0  0  0  0
   -2.7351    0.4716    1.9732 H   0  0  0  0  0  0  0  0  0  0  0  0
   -0.8103   -0.4474    0.9418 H   0  0  0  0  0  0  0  0  0  0  0  0
    1.9088    3.3443   -0.7603 H   0  0  0  0  0  0  0  0  0  0  0  0
   -0.4798    3.6659   -0.3064 H   0  0  0  0  0  0  0  0  0  0  0  0
    3.3333   -2.2577    0.4988 H   0  0  0  0  0  0  0  0  0  0  0  0
    5.5617   -1.5349    1.4883 H   0  0  0  0  0  0  0  0  0  0  0  0
    7.9242   -2.0736    1.0670 H   0  0  0  0  0  0  0  0  0  0  0  0
    9.8621   -1.9737   -0.4643 H   0  0  0  0  0  0  0  0  0  0  0  0
    7.6640   -0.2497   -2.8191 H   0  0  0  0  0  0  0  0  0  0  0  0
    5.2936    0.2776   -2.4221 H   0  0  0  0  0  0  0  0  0  0  0  0
   -4.3664    2.7176    1.1445 H   0  0  0  0  0  0  0  0  0  0  0  0
   -4.9415    0.5005    2.8470 H   0  0  0  0  0  0  0  0  0  0  0  0
   -6.5894    1.5080    0.7279 H   0  0  0  0  0  0  0  0  0  0  0  0
   -5.6602    2.5983   -0.9178 H   0  0  0  0  0  0  0  0  0  0  0  0
   -6.0975   -0.6865   -0.7085 H   0  0  0  0  0  0  0  0  0  0  0  0
   -7.4144   -0.7652    1.0244 H   0  0  0  0  0  0  0  0  0  0  0  0
  1  2  1  0
  2  3  1  0
  3  4  1  0
  4  5  1  0
  5  6  1  0
  6  7  1  0
  7  8  2  0
  8  9  1  0
  9 10  2  0
 10 11  1  0
 11 12  2  0
 10 13  1  0
 13 14  2  0
 13 15  1  0
 15 16  2  0
 16 17  1  0
 15 18  1  0
 18 19  2  0
 19 20  1  0
 20 21  2  0
 21 22  1  0
 21 23  1  0
 23 24  2  0
  5 25  1  0
 25 26  1  0
 25 27  1  0
 27 28  1  0
 27 29  1  0
 29 30  1  0
 29  3  1  0
 12  7  1  0
 24 18  1  0
 17  9  1  0
  1 31  1  0
  2 32  1  0
  2 33  1  0
  3 34  1  1
  5 35  1  1
  8 36  1  0
 11 37  1  0
 12 38  1  0
 16 39  1  0
 19 40  1  0
 20 41  1  0
 22 42  1  0
 23 43  1  0
 24 44  1  0
 25 45  1  6
 26 46  1  0
 27 47  1  1
 28 48  1  0
 29 49  1  6
 30 50  1  0
M  END
>  <LIG_ID>  (263) 
262

>  <_smiles>  (263) 
OC[C@H]1O[C@@H](OC2=CC3=C(C=C2)C(=O)C(=CO3)C2=CC=C(O)C=C2)[C@H](O)[C@@H](O)[C@@H]1O

>  <_name>  (263) 
Daidzin

>  <_molecular_weight>  (263) 
416.378

>  <_formula>  (263) 
C21H20O9

>  <_logP>  (263) 
0.34429999999999966

>  <_molecular_wt_calculated>  (263) 
416.38199999999983

>  <_havy_atom_count>  (263) 
30

>  <_hydrogen_acceptors>  (263) 
9

>  <_hydrogen_donors>  (263) 
5

>  <_rotatable_bonds>  (263) 
9

>  <_amide_bonds>  (263) 
0

>  <_ring_count>  (263) 
4

$$$$
Genistin
     RDKit          3D

 51 54  0  0  0  0  0  0  0  0999 V2000
   -5.6539   -3.2753   -0.4426 O   0  0  0  0  0  0  0  0  0  0  0  0
   -5.3294   -2.0086   -0.9488 C   0  0  0  0  0  0  0  0  0  0  0  0
   -5.4251   -0.9456    0.1591 C   0  0  1  0  0  0  0  0  0  0  0  0
   -4.6177   -1.3034    1.2814 O   0  0  0  0  0  0  0  0  0  0  0  0
   -3.3479   -0.6721    1.3007 C   0  0  1  0  0  0  0  0  0  0  0  0
   -2.6040   -1.0268    0.1291 O   0  0  0  0  0  0  0  0  0  0  0  0
   -1.2216   -0.8597   -0.0547 C   0  0  0  0  0  0  0  0  0  0  0  0
   -0.6818   -1.1935   -1.2969 C   0  0  0  0  0  0  0  0  0  0  0  0
    0.6880   -1.0706   -1.5562 C   0  0  0  0  0  0  0  0  0  0  0  0
    1.1322   -1.5296   -2.7996 O   0  0  0  0  0  0  0  0  0  0  0  0
    1.5474   -0.5279   -0.5568 C   0  0  0  0  0  0  0  0  0  0  0  0
    2.9209   -0.2380   -0.7512 C   0  0  0  0  0  0  0  0  0  0  0  0
    3.4558   -0.3477   -1.8863 O   0  0  0  0  0  0  0  0  0  0  0  0
    3.6941    0.2399    0.3247 C   0  0  0  0  0  0  0  0  0  0  0  0
    3.0573    0.4734    1.5487 C   0  0  0  0  0  0  0  0  0  0  0  0
    1.7589    0.2528    1.6912 O   0  0  0  0  0  0  0  0  0  0  0  0
    0.9941   -0.2166    0.7125 C   0  0  0  0  0  0  0  0  0  0  0  0
   -0.3708   -0.3883    0.9558 C   0  0  0  0  0  0  0  0  0  0  0  0
    5.1468    0.5170    0.1847 C   0  0  0  0  0  0  0  0  0  0  0  0
    5.6869    1.7299    0.6481 C   0  0  0  0  0  0  0  0  0  0  0  0
    7.0554    1.9883    0.5240 C   0  0  0  0  0  0  0  0  0  0  0  0
    7.9012    1.0394   -0.0581 C   0  0  0  0  0  0  0  0  0  0  0  0
    9.2625    1.3107   -0.1750 O   0  0  0  0  0  0  0  0  0  0  0  0
    7.3724   -0.1742   -0.5164 C   0  0  0  0  0  0  0  0  0  0  0  0
    6.0043   -0.4354   -0.3944 C   0  0  0  0  0  0  0  0  0  0  0  0
   -3.4854    0.8697    1.4431 C   0  0  2  0  0  0  0  0  0  0  0  0
   -3.5132    1.2252    2.8020 O   0  0  0  0  0  0  0  0  0  0  0  0
   -4.7679    1.4002    0.7653 C   0  0  1  0  0  0  0  0  0  0  0  0
   -4.5575    2.7038    0.2865 O   0  0  0  0  0  0  0  0  0  0  0  0
   -5.1727    0.4833   -0.3935 C   0  0  2  0  0  0  0  0  0  0  0  0
   -6.3454    0.9609   -1.0038 O   0  0  0  0  0  0  0  0  0  0  0  0
   -4.8342   -3.6267   -0.0064 H   0  0  0  0  0  0  0  0  0  0  0  0
   -4.3178   -2.0219   -1.4122 H   0  0  0  0  0  0  0  0  0  0  0  0
   -6.0541   -1.7608   -1.7536 H   0  0  0  0  0  0  0  0  0  0  0  0
   -6.4761   -0.9673    0.5248 H   0  0  0  0  0  0  0  0  0  0  0  0
   -2.8113   -1.0768    2.1854 H   0  0  0  0  0  0  0  0  0  0  0  0
   -1.3351   -1.5851   -2.0673 H   0  0  0  0  0  0  0  0  0  0  0  0
    2.0866   -1.7811   -3.0097 H   0  0  0  0  0  0  0  0  0  0  0  0
    3.6197    0.8402    2.3979 H   0  0  0  0  0  0  0  0  0  0  0  0
   -0.7556   -0.1347    1.9332 H   0  0  0  0  0  0  0  0  0  0  0  0
    5.0475    2.4818    1.0939 H   0  0  0  0  0  0  0  0  0  0  0  0
    7.4588    2.9279    0.8797 H   0  0  0  0  0  0  0  0  0  0  0  0
    9.9013    0.6435   -0.5917 H   0  0  0  0  0  0  0  0  0  0  0  0
    8.0208   -0.9172   -0.9631 H   0  0  0  0  0  0  0  0  0  0  0  0
    5.6179   -1.3870   -0.7380 H   0  0  0  0  0  0  0  0  0  0  0  0
   -2.6088    1.3567    0.9548 H   0  0  0  0  0  0  0  0  0  0  0  0
   -2.5769    1.1882    3.1302 H   0  0  0  0  0  0  0  0  0  0  0  0
   -5.6078    1.4067    1.5016 H   0  0  0  0  0  0  0  0  0  0  0  0
   -4.5428    3.2998    1.0804 H   0  0  0  0  0  0  0  0  0  0  0  0
   -4.3428    0.4564   -1.1407 H   0  0  0  0  0  0  0  0  0  0  0  0
   -6.0732    1.6764   -1.6360 H   0  0  0  0  0  0  0  0  0  0  0  0
  1  2  1  0
  2  3  1  0
  3  4  1  0
  4  5  1  0
  5  6  1  0
  6  7  1  0
  7  8  2  0
  8  9  1  0
  9 10  1  0
  9 11  2  0
 11 12  1  0
 12 13  2  0
 12 14  1  0
 14 15  2  0
 15 16  1  0
 16 17  1  0
 17 18  2  0
 14 19  1  0
 19 20  2  0
 20 21  1  0
 21 22  2  0
 22 23  1  0
 22 24  1  0
 24 25  2  0
  5 26  1  0
 26 27  1  0
 26 28  1  0
 28 29  1  0
 28 30  1  0
 30 31  1  0
 30  3  1  0
 18  7  1  0
 25 19  1  0
 17 11  1  0
  1 32  1  0
  2 33  1  0
  2 34  1  0
  3 35  1  1
  5 36  1  1
  8 37  1  0
 10 38  1  0
 15 39  1  0
 18 40  1  0
 20 41  1  0
 21 42  1  0
 23 43  1  0
 24 44  1  0
 25 45  1  0
 26 46  1  6
 27 47  1  0
 28 48  1  1
 29 49  1  0
 30 50  1  6
 31 51  1  0
M  END
>  <LIG_ID>  (264) 
263

>  <_smiles>  (264) 
OC[C@H]1O[C@@H](OC2=CC(O)=C3C(=O)C(=COC3=C2)C2=CC=C(O)C=C2)[C@H](O)[C@@H](O)[C@@H]1O

>  <_name>  (264) 
Genistin

>  <_molecular_weight>  (264) 
432.378

>  <_formula>  (264) 
C21H20O10

>  <_logP>  (264) 
0.049899999999999556

>  <_molecular_wt_calculated>  (264) 
432.38099999999986

>  <_havy_atom_count>  (264) 
31

>  <_hydrogen_acceptors>  (264) 
10

>  <_hydrogen_donors>  (264) 
6

>  <_rotatable_bonds>  (264) 
10

>  <_amide_bonds>  (264) 
0

>  <_ring_count>  (264) 
4

$$$$
6''-O-Acetylgenistin
     RDKit          3D

 56 59  0  0  0  0  0  0  0  0999 V2000
   -7.7193    2.4370    0.8154 C   0  0  0  0  0  0  0  0  0  0  0  0
   -6.2628    2.1487    0.6845 C   0  0  0  0  0  0  0  0  0  0  0  0
   -5.5942    2.7132   -0.2235 O   0  0  0  0  0  0  0  0  0  0  0  0
   -5.6649    1.2221    1.5459 O   0  0  0  0  0  0  0  0  0  0  0  0
   -4.3030    0.8099    1.4349 C   0  0  0  0  0  0  0  0  0  0  0  0
   -4.1099   -0.1634    0.2627 C   0  0  1  0  0  0  0  0  0  0  0  0
   -2.7495   -0.5442    0.2120 O   0  0  0  0  0  0  0  0  0  0  0  0
   -2.4389   -1.1410   -1.0410 C   0  0  1  0  0  0  0  0  0  0  0  0
   -1.1476   -1.7437   -0.9496 O   0  0  0  0  0  0  0  0  0  0  0  0
    0.0521   -1.0520   -0.7176 C   0  0  0  0  0  0  0  0  0  0  0  0
    0.1090    0.3480   -0.5947 C   0  0  0  0  0  0  0  0  0  0  0  0
    1.3295    0.9988   -0.3609 C   0  0  0  0  0  0  0  0  0  0  0  0
    1.3487    2.3893   -0.2412 O   0  0  0  0  0  0  0  0  0  0  0  0
    2.5202    0.2428   -0.2483 C   0  0  0  0  0  0  0  0  0  0  0  0
    2.4548   -1.1646   -0.3762 C   0  0  0  0  0  0  0  0  0  0  0  0
    3.5538   -1.9039   -0.2786 O   0  0  0  0  0  0  0  0  0  0  0  0
    4.7536   -1.3833   -0.0562 C   0  0  0  0  0  0  0  0  0  0  0  0
    4.9218    0.0008    0.0901 C   0  0  0  0  0  0  0  0  0  0  0  0
    3.7856    0.8259   -0.0177 C   0  0  0  0  0  0  0  0  0  0  0  0
    3.9104    2.0783    0.0720 O   0  0  0  0  0  0  0  0  0  0  0  0
    6.2746    0.5568    0.3463 C   0  0  0  0  0  0  0  0  0  0  0  0
    7.3679    0.1527   -0.4402 C   0  0  0  0  0  0  0  0  0  0  0  0
    8.6444    0.6681   -0.1957 C   0  0  0  0  0  0  0  0  0  0  0  0
    8.8452    1.5887    0.8411 C   0  0  0  0  0  0  0  0  0  0  0  0
   10.1125    2.1088    1.0940 O   0  0  0  0  0  0  0  0  0  0  0  0
    7.7639    1.9890    1.6318 C   0  0  0  0  0  0  0  0  0  0  0  0
    6.4861    1.4760    1.3893 C   0  0  0  0  0  0  0  0  0  0  0  0
    1.2296   -1.7950   -0.6085 C   0  0  0  0  0  0  0  0  0  0  0  0
   -3.4681   -2.2284   -1.4703 C   0  0  2  0  0  0  0  0  0  0  0  0
   -4.2706   -1.7254   -2.5089 O   0  0  0  0  0  0  0  0  0  0  0  0
   -4.3534   -2.6598   -0.2781 C   0  0  1  0  0  0  0  0  0  0  0  0
   -3.5699   -3.3654    0.6522 O   0  0  0  0  0  0  0  0  0  0  0  0
   -4.9916   -1.4319    0.4238 C   0  0  2  0  0  0  0  0  0  0  0  0
   -6.2966   -1.1986   -0.0478 O   0  0  0  0  0  0  0  0  0  0  0  0
   -8.2865    1.7991    0.1062 H   0  0  0  0  0  0  0  0  0  0  0  0
   -8.0570    2.2203    1.8504 H   0  0  0  0  0  0  0  0  0  0  0  0
   -7.9191    3.5057    0.5892 H   0  0  0  0  0  0  0  0  0  0  0  0
   -3.6466    1.6983    1.3050 H   0  0  0  0  0  0  0  0  0  0  0  0
   -4.0045    0.3124    2.3824 H   0  0  0  0  0  0  0  0  0  0  0  0
   -4.3884    0.3840   -0.6689 H   0  0  0  0  0  0  0  0  0  0  0  0
   -2.3939   -0.3521   -1.8269 H   0  0  0  0  0  0  0  0  0  0  0  0
   -0.7883    0.9450   -0.6797 H   0  0  0  0  0  0  0  0  0  0  0  0
    0.5039    2.9436   -0.3185 H   0  0  0  0  0  0  0  0  0  0  0  0
    5.6042   -2.0486    0.0194 H   0  0  0  0  0  0  0  0  0  0  0  0
    7.2307   -0.5517   -1.2514 H   0  0  0  0  0  0  0  0  0  0  0  0
    9.4758    0.3522   -0.8128 H   0  0  0  0  0  0  0  0  0  0  0  0
   10.9162    1.8381    0.5392 H   0  0  0  0  0  0  0  0  0  0  0  0
    7.9149    2.6953    2.4383 H   0  0  0  0  0  0  0  0  0  0  0  0
    5.6663    1.7844    2.0261 H   0  0  0  0  0  0  0  0  0  0  0  0
    1.1913   -2.8733   -0.7041 H   0  0  0  0  0  0  0  0  0  0  0  0
   -2.9174   -3.1214   -1.8510 H   0  0  0  0  0  0  0  0  0  0  0  0
   -4.7214   -2.5038   -2.9295 H   0  0  0  0  0  0  0  0  0  0  0  0
   -5.1673   -3.3298   -0.6437 H   0  0  0  0  0  0  0  0  0  0  0  0
   -3.4152   -4.2701    0.2732 H   0  0  0  0  0  0  0  0  0  0  0  0
   -5.0810   -1.6769    1.5059 H   0  0  0  0  0  0  0  0  0  0  0  0
   -6.2401   -1.0047   -1.0189 H   0  0  0  0  0  0  0  0  0  0  0  0
  1  2  1  0
  2  3  2  0
  2  4  1  0
  4  5  1  0
  5  6  1  0
  6  7  1  0
  7  8  1  0
  8  9  1  0
  9 10  1  0
 10 11  2  0
 11 12  1  0
 12 13  1  0
 12 14  2  0
 14 15  1  0
 15 16  1  0
 16 17  1  0
 17 18  2  0
 18 19  1  0
 19 20  2  0
 18 21  1  0
 21 22  2  0
 22 23  1  0
 23 24  2  0
 24 25  1  0
 24 26  1  0
 26 27  2  0
 15 28  2  0
  8 29  1  0
 29 30  1  0
 29 31  1  0
 31 32  1  0
 31 33  1  0
 33 34  1  0
 33  6  1  0
 28 10  1  0
 19 14  1  0
 27 21  1  0
  1 35  1  0
  1 36  1  0
  1 37  1  0
  5 38  1  0
  5 39  1  0
  6 40  1  6
  8 41  1  6
 11 42  1  0
 13 43  1  0
 17 44  1  0
 22 45  1  0
 23 46  1  0
 25 47  1  0
 26 48  1  0
 27 49  1  0
 28 50  1  0
 29 51  1  6
 30 52  1  0
 31 53  1  6
 32 54  1  0
 33 55  1  1
 34 56  1  0
M  END
>  <LIG_ID>  (265) 
264

>  <_smiles>  (265) 
CC(=O)OC[C@H]1O[C@@H](OC2=CC(O)=C3C(OC=C(C3=O)C3=CC=C(O)C=C3)=C2)[C@H](O)[C@@H](O)[C@@H]1O

>  <_name>  (265) 
6''-O-Acetylgenistin

>  <_molecular_weight>  (265) 
474.414

>  <_formula>  (265) 
C23H22O11

>  <_logP>  (265) 
0.6206999999999994

>  <_molecular_wt_calculated>  (265) 
474.4179999999999

>  <_havy_atom_count>  (265) 
34

>  <_hydrogen_acceptors>  (265) 
11

>  <_hydrogen_donors>  (265) 
5

>  <_rotatable_bonds>  (265) 
11

>  <_amide_bonds>  (265) 
0

>  <_ring_count>  (265) 
4

$$$$
6''-O-Acetylglycitin
     RDKit          3D

 59 62  0  0  0  0  0  0  0  0999 V2000
    0.1585    4.3821   -0.3960 C   0  0  0  0  0  0  0  0  0  0  0  0
   -0.3024    3.0362   -0.4573 O   0  0  0  0  0  0  0  0  0  0  0  0
    0.5138    1.9051   -0.2944 C   0  0  0  0  0  0  0  0  0  0  0  0
    1.8968    2.0119   -0.0490 C   0  0  0  0  0  0  0  0  0  0  0  0
    2.6833    0.8584    0.1101 C   0  0  0  0  0  0  0  0  0  0  0  0
    2.0778   -0.4109    0.0142 C   0  0  0  0  0  0  0  0  0  0  0  0
    2.8048   -1.5143    0.1530 O   0  0  0  0  0  0  0  0  0  0  0  0
    4.1113   -1.4888    0.3898 C   0  0  0  0  0  0  0  0  0  0  0  0
    4.7990   -0.2707    0.5075 C   0  0  0  0  0  0  0  0  0  0  0  0
    4.0670    0.9226    0.3549 C   0  0  0  0  0  0  0  0  0  0  0  0
    4.6518    2.0397    0.4173 O   0  0  0  0  0  0  0  0  0  0  0  0
    6.2584   -0.2678    0.7802 C   0  0  0  0  0  0  0  0  0  0  0  0
    7.1208   -1.0904    0.0340 C   0  0  0  0  0  0  0  0  0  0  0  0
    8.4945   -1.0959    0.2942 C   0  0  0  0  0  0  0  0  0  0  0  0
    9.0230   -0.2865    1.3042 C   0  0  0  0  0  0  0  0  0  0  0  0
   10.3937   -0.3023    1.5522 O   0  0  0  0  0  0  0  0  0  0  0  0
    8.1699    0.5305    2.0574 C   0  0  0  0  0  0  0  0  0  0  0  0
    6.7958    0.5388    1.7991 C   0  0  0  0  0  0  0  0  0  0  0  0
    0.7068   -0.5164   -0.2308 C   0  0  0  0  0  0  0  0  0  0  0  0
   -0.0854    0.6382   -0.3779 C   0  0  0  0  0  0  0  0  0  0  0  0
   -1.4688    0.5810   -0.6235 O   0  0  0  0  0  0  0  0  0  0  0  0
   -2.3055   -0.5718   -0.5009 C   0  0  2  0  0  0  0  0  0  0  0  0
   -3.5293   -0.2867   -1.1523 O   0  0  0  0  0  0  0  0  0  0  0  0
   -4.3128   -1.4647   -1.2785 C   0  0  2  0  0  0  0  0  0  0  0  0
   -5.6345   -1.0951   -1.9616 C   0  0  0  0  0  0  0  0  0  0  0  0
   -6.3440   -0.1406   -1.1769 O   0  0  0  0  0  0  0  0  0  0  0  0
   -7.5856    0.3755   -1.5558 C   0  0  0  0  0  0  0  0  0  0  0  0
   -8.2766    1.3523   -0.6668 C   0  0  0  0  0  0  0  0  0  0  0  0
   -8.1450   -0.0061   -2.6196 O   0  0  0  0  0  0  0  0  0  0  0  0
   -4.5566   -2.1657    0.0960 C   0  0  1  0  0  0  0  0  0  0  0  0
   -3.9113   -3.4149    0.0963 O   0  0  0  0  0  0  0  0  0  0  0  0
   -4.0224   -1.3027    1.2565 C   0  0  2  0  0  0  0  0  0  0  0  0
   -4.8329   -0.1615    1.3894 O   0  0  0  0  0  0  0  0  0  0  0  0
   -2.5558   -0.8849    1.0005 C   0  0  1  0  0  0  0  0  0  0  0  0
   -1.7068   -1.9263    1.4157 O   0  0  0  0  0  0  0  0  0  0  0  0
    0.5941    4.5915    0.6039 H   0  0  0  0  0  0  0  0  0  0  0  0
    0.9141    4.5636   -1.1893 H   0  0  0  0  0  0  0  0  0  0  0  0
   -0.6990    5.0663   -0.5596 H   0  0  0  0  0  0  0  0  0  0  0  0
    2.3598    2.9871    0.0194 H   0  0  0  0  0  0  0  0  0  0  0  0
    4.6392   -2.4274    0.4999 H   0  0  0  0  0  0  0  0  0  0  0  0
    6.7324   -1.7184   -0.7584 H   0  0  0  0  0  0  0  0  0  0  0  0
    9.1493   -1.7293   -0.2907 H   0  0  0  0  0  0  0  0  0  0  0  0
   10.8071    0.2723    2.2773 H   0  0  0  0  0  0  0  0  0  0  0  0
    8.5695    1.1556    2.8457 H   0  0  0  0  0  0  0  0  0  0  0  0
    6.1509    1.1623    2.4058 H   0  0  0  0  0  0  0  0  0  0  0  0
    0.2790   -1.5042   -0.3131 H   0  0  0  0  0  0  0  0  0  0  0  0
   -1.8132   -1.4304   -1.0129 H   0  0  0  0  0  0  0  0  0  0  0  0
   -3.7987   -2.1707   -1.9723 H   0  0  0  0  0  0  0  0  0  0  0  0
   -5.4199   -0.6629   -2.9636 H   0  0  0  0  0  0  0  0  0  0  0  0
   -6.2556   -2.0076   -2.0993 H   0  0  0  0  0  0  0  0  0  0  0  0
   -7.5386    1.8481   -0.0018 H   0  0  0  0  0  0  0  0  0  0  0  0
   -8.7874    2.1270   -1.2766 H   0  0  0  0  0  0  0  0  0  0  0  0
   -9.0265    0.8204   -0.0453 H   0  0  0  0  0  0  0  0  0  0  0  0
   -5.6488   -2.3297    0.2596 H   0  0  0  0  0  0  0  0  0  0  0  0
   -4.2970   -3.9414    0.8447 H   0  0  0  0  0  0  0  0  0  0  0  0
   -4.0813   -1.8984    2.1987 H   0  0  0  0  0  0  0  0  0  0  0  0
   -4.6774    0.1995    2.3013 H   0  0  0  0  0  0  0  0  0  0  0  0
   -2.3581    0.0337    1.6060 H   0  0  0  0  0  0  0  0  0  0  0  0
   -0.9453   -1.5142    1.9011 H   0  0  0  0  0  0  0  0  0  0  0  0
  1  2  1  0
  2  3  1  0
  3  4  2  0
  4  5  1  0
  5  6  2  0
  6  7  1  0
  7  8  1  0
  8  9  2  0
  9 10  1  0
 10 11  2  0
  9 12  1  0
 12 13  2  0
 13 14  1  0
 14 15  2  0
 15 16  1  0
 15 17  1  0
 17 18  2  0
  6 19  1  0
 19 20  2  0
 20 21  1  0
 21 22  1  0
 22 23  1  0
 23 24  1  0
 24 25  1  0
 25 26  1  0
 26 27  1  0
 27 28  1  0
 27 29  2  0
 24 30  1  0
 30 31  1  0
 30 32  1  0
 32 33  1  0
 32 34  1  0
 34 35  1  0
 20  3  1  0
 34 22  1  0
 10  5  1  0
 18 12  1  0
  1 36  1  0
  1 37  1  0
  1 38  1  0
  4 39  1  0
  8 40  1  0
 13 41  1  0
 14 42  1  0
 16 43  1  0
 17 44  1  0
 18 45  1  0
 19 46  1  0
 22 47  1  6
 24 48  1  6
 25 49  1  0
 25 50  1  0
 28 51  1  0
 28 52  1  0
 28 53  1  0
 30 54  1  1
 31 55  1  0
 32 56  1  1
 33 57  1  0
 34 58  1  1
 35 59  1  0
M  END
>  <LIG_ID>  (266) 
265

>  <_smiles>  (266) 
COC1=CC2=C(OC=C(C2=O)C2=CC=C(O)C=C2)C=C1O[C@@H]1O[C@H](COC(C)=O)[C@@H](O)[C@H](O)[C@H]1O

>  <_name>  (266) 
6''-O-Acetylglycitin

>  <_molecular_weight>  (266) 
488.441

>  <_formula>  (266) 
C24H24O11

>  <_logP>  (266) 
0.9236999999999993

>  <_molecular_wt_calculated>  (266) 
488.4449999999999

>  <_havy_atom_count>  (266) 
35

>  <_hydrogen_acceptors>  (266) 
11

>  <_hydrogen_donors>  (266) 
4

>  <_rotatable_bonds>  (266) 
12

>  <_amide_bonds>  (266) 
0

>  <_ring_count>  (266) 
4

$$$$
6''-O-Malonyldaidzin
     RDKit          3D

 58 61  0  0  0  0  0  0  0  0999 V2000
   -4.4744    2.9806    0.7450 O   0  0  0  0  0  0  0  0  0  0  0  0
   -4.1612    2.2421    1.8998 C   0  0  1  0  0  0  0  0  0  0  0  0
   -4.2452    0.7417    1.5674 C   0  0  2  0  0  0  0  0  0  0  0  0
   -4.1692    0.0048    2.7613 O   0  0  0  0  0  0  0  0  0  0  0  0
   -3.0873    0.3155    0.6020 C   0  0  1  0  0  0  0  0  0  0  0  0
   -3.6270   -0.0339   -0.7880 C   0  0  0  0  0  0  0  0  0  0  0  0
   -4.4893   -1.1647   -0.7043 O   0  0  0  0  0  0  0  0  0  0  0  0
   -5.1605   -1.6865   -1.8131 C   0  0  0  0  0  0  0  0  0  0  0  0
   -5.0209   -1.1672   -2.9542 O   0  0  0  0  0  0  0  0  0  0  0  0
   -6.0878   -2.8424   -1.6294 C   0  0  0  0  0  0  0  0  0  0  0  0
   -7.3847   -2.3642   -1.0632 C   0  0  0  0  0  0  0  0  0  0  0  0
   -7.5164   -2.1857    0.3105 O   0  0  0  0  0  0  0  0  0  0  0  0
   -8.3444   -2.0839   -1.8302 O   0  0  0  0  0  0  0  0  0  0  0  0
   -2.1067    1.3316    0.4513 O   0  0  0  0  0  0  0  0  0  0  0  0
   -1.6558    1.7670    1.7202 C   0  0  1  0  0  0  0  0  0  0  0  0
   -0.4787    2.5568    1.5554 O   0  0  0  0  0  0  0  0  0  0  0  0
    0.7457    2.0799    1.0615 C   0  0  0  0  0  0  0  0  0  0  0  0
    0.9466    0.7317    0.7068 C   0  0  0  0  0  0  0  0  0  0  0  0
    2.1861    0.3061    0.2169 C   0  0  0  0  0  0  0  0  0  0  0  0
    3.2465    1.2278    0.0777 C   0  0  0  0  0  0  0  0  0  0  0  0
    3.0422    2.5721    0.4336 C   0  0  0  0  0  0  0  0  0  0  0  0
    1.8008    2.9886    0.9218 C   0  0  0  0  0  0  0  0  0  0  0  0
    4.4759    0.7630   -0.4211 C   0  0  0  0  0  0  0  0  0  0  0  0
    5.4382    1.5628   -0.5884 O   0  0  0  0  0  0  0  0  0  0  0  0
    4.6173   -0.5983   -0.7534 C   0  0  0  0  0  0  0  0  0  0  0  0
    3.5061   -1.4402   -0.5859 C   0  0  0  0  0  0  0  0  0  0  0  0
    2.3565   -0.9684   -0.1168 O   0  0  0  0  0  0  0  0  0  0  0  0
    5.8934   -1.1514   -1.2729 C   0  0  0  0  0  0  0  0  0  0  0  0
    7.1103   -0.8795   -0.6224 C   0  0  0  0  0  0  0  0  0  0  0  0
    8.3077   -1.4108   -1.1111 C   0  0  0  0  0  0  0  0  0  0  0  0
    8.3037   -2.2233   -2.2523 C   0  0  0  0  0  0  0  0  0  0  0  0
    9.4908   -2.7575   -2.7484 O   0  0  0  0  0  0  0  0  0  0  0  0
    7.0967   -2.5032   -2.8998 C   0  0  0  0  0  0  0  0  0  0  0  0
    5.8975   -1.9740   -2.4133 C   0  0  0  0  0  0  0  0  0  0  0  0
   -2.7478    2.6234    2.4047 C   0  0  2  0  0  0  0  0  0  0  0  0
   -2.6875    2.4491    3.7972 O   0  0  0  0  0  0  0  0  0  0  0  0
   -4.7266    3.8930    1.0451 H   0  0  0  0  0  0  0  0  0  0  0  0
   -4.9159    2.4692    2.6905 H   0  0  0  0  0  0  0  0  0  0  0  0
   -5.2443    0.5606    1.1036 H   0  0  0  0  0  0  0  0  0  0  0  0
   -4.4917   -0.9109    2.5523 H   0  0  0  0  0  0  0  0  0  0  0  0
   -2.5916   -0.6059    0.9880 H   0  0  0  0  0  0  0  0  0  0  0  0
   -4.1809    0.8351   -1.2068 H   0  0  0  0  0  0  0  0  0  0  0  0
   -2.7764   -0.2726   -1.4637 H   0  0  0  0  0  0  0  0  0  0  0  0
   -6.2613   -3.3544   -2.6011 H   0  0  0  0  0  0  0  0  0  0  0  0
   -5.6281   -3.5751   -0.9327 H   0  0  0  0  0  0  0  0  0  0  0  0
   -8.3828   -1.8445    0.7094 H   0  0  0  0  0  0  0  0  0  0  0  0
   -1.4015    0.8979    2.3743 H   0  0  0  0  0  0  0  0  0  0  0  0
    0.1517    0.0054    0.8064 H   0  0  0  0  0  0  0  0  0  0  0  0
    3.8372    3.3013    0.3369 H   0  0  0  0  0  0  0  0  0  0  0  0
    1.6561    4.0268    1.1927 H   0  0  0  0  0  0  0  0  0  0  0  0
    3.5760   -2.4923   -0.8306 H   0  0  0  0  0  0  0  0  0  0  0  0
    7.1322   -0.2702    0.2725 H   0  0  0  0  0  0  0  0  0  0  0  0
    9.2368   -1.1941   -0.5995 H   0  0  0  0  0  0  0  0  0  0  0  0
   10.3815   -2.5737   -2.3015 H   0  0  0  0  0  0  0  0  0  0  0  0
    7.0880   -3.1307   -3.7820 H   0  0  0  0  0  0  0  0  0  0  0  0
    4.9743   -2.1959   -2.9343 H   0  0  0  0  0  0  0  0  0  0  0  0
   -2.5787    3.7011    2.1691 H   0  0  0  0  0  0  0  0  0  0  0  0
   -1.8711    2.9205    4.1094 H   0  0  0  0  0  0  0  0  0  0  0  0
  1  2  1  0
  2  3  1  0
  3  4  1  0
  3  5  1  0
  5  6  1  0
  6  7  1  0
  7  8  1  0
  8  9  2  0
  8 10  1  0
 10 11  1  0
 11 12  1  0
 11 13  2  0
  5 14  1  0
 14 15  1  0
 15 16  1  0
 16 17  1  0
 17 18  2  0
 18 19  1  0
 19 20  2  0
 20 21  1  0
 21 22  2  0
 20 23  1  0
 23 24  2  0
 23 25  1  0
 25 26  2  0
 26 27  1  0
 25 28  1  0
 28 29  2  0
 29 30  1  0
 30 31  2  0
 31 32  1  0
 31 33  1  0
 33 34  2  0
 15 35  1  0
 35 36  1  0
 35  2  1  0
 22 17  1  0
 34 28  1  0
 27 19  1  0
  1 37  1  0
  2 38  1  1
  3 39  1  6
  4 40  1  0
  5 41  1  1
  6 42  1  0
  6 43  1  0
 10 44  1  0
 10 45  1  0
 12 46  1  0
 15 47  1  1
 18 48  1  0
 21 49  1  0
 22 50  1  0
 26 51  1  0
 29 52  1  0
 30 53  1  0
 32 54  1  0
 33 55  1  0
 34 56  1  0
 35 57  1  1
 36 58  1  0
M  END
>  <LIG_ID>  (267) 
266

>  <_smiles>  (267) 
O[C@H]1[C@H](O)[C@@H](COC(=O)CC(O)=O)O[C@@H](OC2=CC3=C(C=C2)C(=O)C(=CO3)C2=CC=C(O)C=C2)[C@@H]1O

>  <_name>  (267) 
6''-O-Malonyldaidzin

>  <_molecular_weight>  (267) 
502.424

>  <_formula>  (267) 
C24H22O12

>  <_logP>  (267) 
0.36989999999999973

>  <_molecular_wt_calculated>  (267) 
502.42799999999994

>  <_havy_atom_count>  (267) 
36

>  <_hydrogen_acceptors>  (267) 
12

>  <_hydrogen_donors>  (267) 
5

>  <_rotatable_bonds>  (267) 
11

>  <_amide_bonds>  (267) 
0

>  <_ring_count>  (267) 
4

$$$$
6''-O-Malonylglycitin
     RDKit          3D

 62 65  0  0  0  0  0  0  0  0999 V2000
    0.1401   -0.7447   -3.5340 C   0  0  0  0  0  0  0  0  0  0  0  0
   -0.2435   -0.5296   -2.1796 O   0  0  0  0  0  0  0  0  0  0  0  0
    0.6266   -0.1665   -1.1413 C   0  0  0  0  0  0  0  0  0  0  0  0
    0.1305   -0.0093    0.1794 C   0  0  0  0  0  0  0  0  0  0  0  0
   -1.2076   -0.2307    0.5623 O   0  0  0  0  0  0  0  0  0  0  0  0
   -2.1938   -1.0542   -0.0685 C   0  0  2  0  0  0  0  0  0  0  0  0
   -3.4324   -0.7811    0.5625 O   0  0  0  0  0  0  0  0  0  0  0  0
   -4.4951   -1.4596   -0.0872 C   0  0  2  0  0  0  0  0  0  0  0  0
   -5.8160   -0.9820    0.5242 C   0  0  0  0  0  0  0  0  0  0  0  0
   -5.9222    0.4314    0.3838 O   0  0  0  0  0  0  0  0  0  0  0  0
   -7.0131    1.1581    0.8683 C   0  0  0  0  0  0  0  0  0  0  0  0
   -7.9584    0.5776    1.4690 O   0  0  0  0  0  0  0  0  0  0  0  0
   -7.0323    2.6432    0.7118 C   0  0  0  0  0  0  0  0  0  0  0  0
   -6.2411    3.2786    1.8079 C   0  0  0  0  0  0  0  0  0  0  0  0
   -6.8606    3.6043    3.0104 O   0  0  0  0  0  0  0  0  0  0  0  0
   -5.0065    3.4829    1.6592 O   0  0  0  0  0  0  0  0  0  0  0  0
   -4.3295   -2.9883    0.0759 C   0  0  1  0  0  0  0  0  0  0  0  0
   -5.3410   -3.6637   -0.6293 O   0  0  0  0  0  0  0  0  0  0  0  0
   -2.9611   -3.4194   -0.4789 C   0  0  2  0  0  0  0  0  0  0  0  0
   -2.7161   -4.7655   -0.1611 O   0  0  0  0  0  0  0  0  0  0  0  0
   -1.8444   -2.5500    0.1164 C   0  0  1  0  0  0  0  0  0  0  0  0
   -0.6366   -2.8630   -0.5289 O   0  0  0  0  0  0  0  0  0  0  0  0
    1.0000    0.4130    1.1922 C   0  0  0  0  0  0  0  0  0  0  0  0
    2.3512    0.6453    0.9357 C   0  0  0  0  0  0  0  0  0  0  0  0
    3.1487    1.0352    1.9242 O   0  0  0  0  0  0  0  0  0  0  0  0
    4.4446    1.2689    1.7514 C   0  0  0  0  0  0  0  0  0  0  0  0
    5.0436    1.1104    0.4919 C   0  0  0  0  0  0  0  0  0  0  0  0
    4.2292    0.7094   -0.5848 C   0  0  0  0  0  0  0  0  0  0  0  0
    4.7190    0.5895   -1.7422 O   0  0  0  0  0  0  0  0  0  0  0  0
    2.8612    0.4657   -0.3637 C   0  0  0  0  0  0  0  0  0  0  0  0
    1.9956    0.0639   -1.3943 C   0  0  0  0  0  0  0  0  0  0  0  0
    6.4959    1.3698    0.3246 C   0  0  0  0  0  0  0  0  0  0  0  0
    7.0713    2.5424    0.8453 C   0  0  0  0  0  0  0  0  0  0  0  0
    8.4401    2.7854    0.6965 C   0  0  0  0  0  0  0  0  0  0  0  0
    9.2516    1.8573    0.0311 C   0  0  0  0  0  0  0  0  0  0  0  0
   10.6166    2.0888   -0.1231 O   0  0  0  0  0  0  0  0  0  0  0  0
    8.6874    0.6859   -0.4826 C   0  0  0  0  0  0  0  0  0  0  0  0
    7.3188    0.4403   -0.3361 C   0  0  0  0  0  0  0  0  0  0  0  0
    0.5597    0.1884   -3.9656 H   0  0  0  0  0  0  0  0  0  0  0  0
    0.8844   -1.5666   -3.5942 H   0  0  0  0  0  0  0  0  0  0  0  0
   -0.7553   -1.0347   -4.1208 H   0  0  0  0  0  0  0  0  0  0  0  0
   -2.2759   -0.7877   -1.1415 H   0  0  0  0  0  0  0  0  0  0  0  0
   -4.5224   -1.1997   -1.1721 H   0  0  0  0  0  0  0  0  0  0  0  0
   -6.6727   -1.4627    0.0038 H   0  0  0  0  0  0  0  0  0  0  0  0
   -5.8499   -1.2503    1.6033 H   0  0  0  0  0  0  0  0  0  0  0  0
   -6.5999    2.9171   -0.2745 H   0  0  0  0  0  0  0  0  0  0  0  0
   -8.0787    3.0164    0.7429 H   0  0  0  0  0  0  0  0  0  0  0  0
   -6.3346    4.0208    3.7694 H   0  0  0  0  0  0  0  0  0  0  0  0
   -4.3637   -3.2482    1.1623 H   0  0  0  0  0  0  0  0  0  0  0  0
   -6.0713   -3.8538    0.0158 H   0  0  0  0  0  0  0  0  0  0  0  0
   -2.9562   -3.2847   -1.5879 H   0  0  0  0  0  0  0  0  0  0  0  0
   -3.2313   -5.3133   -0.8092 H   0  0  0  0  0  0  0  0  0  0  0  0
   -1.7745   -2.7663    1.2108 H   0  0  0  0  0  0  0  0  0  0  0  0
    0.0768   -2.8572    0.1614 H   0  0  0  0  0  0  0  0  0  0  0  0
    0.6198    0.5485    2.1976 H   0  0  0  0  0  0  0  0  0  0  0  0
    5.0367    1.5767    2.6037 H   0  0  0  0  0  0  0  0  0  0  0  0
    2.3889   -0.0605   -2.3939 H   0  0  0  0  0  0  0  0  0  0  0  0
    6.4587    3.2756    1.3554 H   0  0  0  0  0  0  0  0  0  0  0  0
    8.8684    3.6951    1.0976 H   0  0  0  0  0  0  0  0  0  0  0  0
   11.0554    2.9277    0.2383 H   0  0  0  0  0  0  0  0  0  0  0  0
    9.3112   -0.0376   -0.9921 H   0  0  0  0  0  0  0  0  0  0  0  0
    6.9061   -0.4827   -0.7239 H   0  0  0  0  0  0  0  0  0  0  0  0
  1  2  1  0
  2  3  1  0
  3  4  2  0
  4  5  1  0
  5  6  1  0
  6  7  1  0
  7  8  1  0
  8  9  1  0
  9 10  1  0
 10 11  1  0
 11 12  2  0
 11 13  1  0
 13 14  1  0
 14 15  1  0
 14 16  2  0
  8 17  1  0
 17 18  1  0
 17 19  1  0
 19 20  1  0
 19 21  1  0
 21 22  1  0
  4 23  1  0
 23 24  2  0
 24 25  1  0
 25 26  1  0
 26 27  2  0
 27 28  1  0
 28 29  2  0
 28 30  1  0
 30 31  2  0
 27 32  1  0
 32 33  2  0
 33 34  1  0
 34 35  2  0
 35 36  1  0
 35 37  1  0
 37 38  2  0
 31  3  1  0
 38 32  1  0
 21  6  1  0
 30 24  1  0
  1 39  1  0
  1 40  1  0
  1 41  1  0
  6 42  1  6
  8 43  1  6
  9 44  1  0
  9 45  1  0
 13 46  1  0
 13 47  1  0
 15 48  1  0
 17 49  1  1
 18 50  1  0
 19 51  1  6
 20 52  1  0
 21 53  1  1
 22 54  1  0
 23 55  1  0
 26 56  1  0
 31 57  1  0
 33 58  1  0
 34 59  1  0
 36 60  1  0
 37 61  1  0
 38 62  1  0
M  END
>  <LIG_ID>  (268) 
267

>  <_smiles>  (268) 
COC1=C(O[C@@H]2O[C@H](COC(=O)CC(O)=O)[C@@H](O)[C@H](O)[C@H]2O)C=C2OC=C(C(=O)C2=C1)C1=CC=C(O)C=C1

>  <_name>  (268) 
6''-O-Malonylglycitin

>  <_molecular_weight>  (268) 
532.45

>  <_formula>  (268) 
C25H24O13

>  <_logP>  (268) 
0.3785000000000002

>  <_molecular_wt_calculated>  (268) 
532.4540000000011

>  <_havy_atom_count>  (268) 
38

>  <_hydrogen_acceptors>  (268) 
13

>  <_hydrogen_donors>  (268) 
5

>  <_rotatable_bonds>  (268) 
13

>  <_amide_bonds>  (268) 
0

>  <_ring_count>  (268) 
4

$$$$
Indinavir
     RDKit          3D

 92 96  0  0  0  0  0  0  0  0999 V2000
   -4.4117   -4.4435   -0.5398 C   0  0  0  0  0  0  0  0  0  0  0  0
   -3.2199   -3.7076   -1.1818 C   0  0  0  0  0  0  0  0  0  0  0  0
   -1.9074   -4.0849   -0.4641 C   0  0  0  0  0  0  0  0  0  0  0  0
   -3.1121   -4.1434   -2.6573 C   0  0  0  0  0  0  0  0  0  0  0  0
   -3.4328   -2.2479   -1.1267 N   0  0  0  0  0  0  0  0  0  0  0  0
   -3.4781   -1.4703    0.0843 C   0  0  0  0  0  0  0  0  0  0  0  0
   -3.5877   -2.0335    1.2062 O   0  0  0  0  0  0  0  0  0  0  0  0
   -3.4257    0.0368    0.0289 C   0  0  0  0  0  0  0  0  0  0  0  0
   -4.8193    0.5896   -0.3237 C   0  0  0  0  0  0  0  0  0  0  0  0
   -4.8584    2.0765   -0.3723 N   0  0  0  0  0  0  0  0  0  0  0  0
   -3.5171    2.7069   -0.4206 C   0  0  0  0  0  0  0  0  0  0  0  0
   -2.5656    1.9347   -1.3451 C   0  0  0  0  0  0  0  0  0  0  0  0
   -2.4365    0.5047   -0.9715 N   0  0  0  0  0  0  0  0  0  0  0  0
   -1.0369    0.0783   -0.7321 C   0  0  0  0  0  0  0  0  0  0  0  0
   -0.4358    0.5815    0.6135 C   0  0  0  0  0  0  0  0  0  0  0  0
    1.1107    0.6414    0.5803 C   0  0  0  0  0  0  0  0  0  0  0  0
    1.8131   -0.7383    0.4452 C   0  0  0  0  0  0  0  0  0  0  0  0
    2.1629   -1.3455    1.8239 C   0  0  0  0  0  0  0  0  0  0  0  0
    2.5925   -2.7845    1.6939 C   0  0  0  0  0  0  0  0  0  0  0  0
    3.9558   -3.1184    1.6292 C   0  0  0  0  0  0  0  0  0  0  0  0
    4.3463   -4.4508    1.4638 C   0  0  0  0  0  0  0  0  0  0  0  0
    3.3809   -5.4557    1.3539 C   0  0  0  0  0  0  0  0  0  0  0  0
    2.0227   -5.1297    1.4066 C   0  0  0  0  0  0  0  0  0  0  0  0
    1.6278   -3.7990    1.5729 C   0  0  0  0  0  0  0  0  0  0  0  0
    3.0596   -0.6108   -0.3980 C   0  0  0  0  0  0  0  0  0  0  0  0
    3.1612   -1.2878   -1.4574 O   0  0  0  0  0  0  0  0  0  0  0  0
    4.1255    0.2627    0.0021 N   0  0  0  0  0  0  0  0  0  0  0  0
    5.3643    0.3739   -0.7736 C   0  0  0  0  0  0  0  0  0  0  0  0
    5.2129    1.3029   -2.0132 C   0  0  0  0  0  0  0  0  0  0  0  0
    6.4069    2.2882   -1.9870 C   0  0  0  0  0  0  0  0  0  0  0  0
    7.0171    2.0717   -0.6537 C   0  0  0  0  0  0  0  0  0  0  0  0
    8.0797    2.7890   -0.0980 C   0  0  0  0  0  0  0  0  0  0  0  0
    8.5553    2.4189    1.1693 C   0  0  0  0  0  0  0  0  0  0  0  0
    7.9736    1.3372    1.8542 C   0  0  0  0  0  0  0  0  0  0  0  0
    6.9132    0.6243    1.2749 C   0  0  0  0  0  0  0  0  0  0  0  0
    6.4428    1.0199    0.0186 C   0  0  0  0  0  0  0  0  0  0  0  0
    3.9884    1.9987   -2.0162 O   0  0  0  0  0  0  0  0  0  0  0  0
   -0.8798   -0.1766    1.7120 O   0  0  0  0  0  0  0  0  0  0  0  0
   -5.6698    2.6326    0.7319 C   0  0  0  0  0  0  0  0  0  0  0  0
   -5.9745    4.0906    0.5011 C   0  0  0  0  0  0  0  0  0  0  0  0
   -5.3701    5.0860    1.2844 C   0  0  0  0  0  0  0  0  0  0  0  0
   -5.6380    6.3983    1.0480 N   0  0  0  0  0  0  0  0  0  0  0  0
   -6.4848    6.7879    0.0583 C   0  0  0  0  0  0  0  0  0  0  0  0
   -7.1033    5.8320   -0.7498 C   0  0  0  0  0  0  0  0  0  0  0  0
   -6.8442    4.4783   -0.5279 C   0  0  0  0  0  0  0  0  0  0  0  0
   -4.4690   -4.2541    0.5511 H   0  0  0  0  0  0  0  0  0  0  0  0
   -4.3159   -5.5417   -0.6824 H   0  0  0  0  0  0  0  0  0  0  0  0
   -5.3646   -4.1097   -1.0039 H   0  0  0  0  0  0  0  0  0  0  0  0
   -1.9562   -3.8564    0.6201 H   0  0  0  0  0  0  0  0  0  0  0  0
   -1.7028   -5.1723   -0.5691 H   0  0  0  0  0  0  0  0  0  0  0  0
   -1.0528   -3.5244   -0.8998 H   0  0  0  0  0  0  0  0  0  0  0  0
   -4.0445   -3.8889   -3.2064 H   0  0  0  0  0  0  0  0  0  0  0  0
   -2.2637   -3.6244   -3.1537 H   0  0  0  0  0  0  0  0  0  0  0  0
   -2.9466   -5.2398   -2.7377 H   0  0  0  0  0  0  0  0  0  0  0  0
   -3.4959   -1.7190   -2.0268 H   0  0  0  0  0  0  0  0  0  0  0  0
   -3.1661    0.4222    1.0384 H   0  0  0  0  0  0  0  0  0  0  0  0
   -5.1114    0.2103   -1.3269 H   0  0  0  0  0  0  0  0  0  0  0  0
   -5.5631    0.1727    0.3937 H   0  0  0  0  0  0  0  0  0  0  0  0
   -3.0654    2.7689    0.5952 H   0  0  0  0  0  0  0  0  0  0  0  0
   -3.6103    3.7427   -0.8126 H   0  0  0  0  0  0  0  0  0  0  0  0
   -2.9629    1.9868   -2.3812 H   0  0  0  0  0  0  0  0  0  0  0  0
   -1.5823    2.4562   -1.3536 H   0  0  0  0  0  0  0  0  0  0  0  0
   -0.4088    0.4371   -1.5775 H   0  0  0  0  0  0  0  0  0  0  0  0
   -0.9787   -1.0268   -0.7937 H   0  0  0  0  0  0  0  0  0  0  0  0
   -0.7802    1.6246    0.7751 H   0  0  0  0  0  0  0  0  0  0  0  0
    1.3983    1.3017   -0.2689 H   0  0  0  0  0  0  0  0  0  0  0  0
    1.4697    1.1589    1.4973 H   0  0  0  0  0  0  0  0  0  0  0  0
    1.1318   -1.4434   -0.0763 H   0  0  0  0  0  0  0  0  0  0  0  0
    2.9600   -0.7503    2.3206 H   0  0  0  0  0  0  0  0  0  0  0  0
    1.2872   -1.3006    2.5030 H   0  0  0  0  0  0  0  0  0  0  0  0
    4.7138   -2.3481    1.7004 H   0  0  0  0  0  0  0  0  0  0  0  0
    5.3976   -4.7038    1.4160 H   0  0  0  0  0  0  0  0  0  0  0  0
    3.6851   -6.4862    1.2236 H   0  0  0  0  0  0  0  0  0  0  0  0
    1.2756   -5.9075    1.3143 H   0  0  0  0  0  0  0  0  0  0  0  0
    0.5725   -3.5573    1.6016 H   0  0  0  0  0  0  0  0  0  0  0  0
    3.9983    0.8560    0.8537 H   0  0  0  0  0  0  0  0  0  0  0  0
    5.7159   -0.6359   -1.0812 H   0  0  0  0  0  0  0  0  0  0  0  0
    5.2614    0.6886   -2.9387 H   0  0  0  0  0  0  0  0  0  0  0  0
    7.1435    2.0306   -2.7784 H   0  0  0  0  0  0  0  0  0  0  0  0
    6.0840    3.3455   -2.1038 H   0  0  0  0  0  0  0  0  0  0  0  0
    8.5315    3.6127   -0.6355 H   0  0  0  0  0  0  0  0  0  0  0  0
    9.3763    2.9631    1.6175 H   0  0  0  0  0  0  0  0  0  0  0  0
    8.3482    1.0503    2.8281 H   0  0  0  0  0  0  0  0  0  0  0  0
    6.4684   -0.2161    1.7924 H   0  0  0  0  0  0  0  0  0  0  0  0
    3.9723    2.5856   -1.2147 H   0  0  0  0  0  0  0  0  0  0  0  0
   -0.7959   -1.1374    1.4800 H   0  0  0  0  0  0  0  0  0  0  0  0
   -6.6476    2.1044    0.7913 H   0  0  0  0  0  0  0  0  0  0  0  0
   -5.1580    2.4778    1.7089 H   0  0  0  0  0  0  0  0  0  0  0  0
   -4.6841    4.8204    2.0783 H   0  0  0  0  0  0  0  0  0  0  0  0
   -6.6760    7.8404   -0.1029 H   0  0  0  0  0  0  0  0  0  0  0  0
   -7.7750    6.1375   -1.5415 H   0  0  0  0  0  0  0  0  0  0  0  0
   -7.3170    3.7335   -1.1562 H   0  0  0  0  0  0  0  0  0  0  0  0
  1  2  1  0
  2  3  1  0
  2  4  1  0
  2  5  1  0
  5  6  1  0
  6  7  2  0
  6  8  1  0
  8  9  1  0
  9 10  1  0
 10 11  1  0
 11 12  1  0
 12 13  1  0
 13 14  1  0
 14 15  1  0
 15 16  1  0
 16 17  1  0
 17 18  1  0
 18 19  1  0
 19 20  2  0
 20 21  1  0
 21 22  2  0
 22 23  1  0
 23 24  2  0
 17 25  1  0
 25 26  2  0
 25 27  1  0
 27 28  1  0
 28 29  1  0
 29 30  1  0
 30 31  1  0
 31 32  2  0
 32 33  1  0
 33 34  2  0
 34 35  1  0
 35 36  2  0
 29 37  1  0
 15 38  1  0
 10 39  1  0
 39 40  1  0
 40 41  2  0
 41 42  1  0
 42 43  2  0
 43 44  1  0
 44 45  2  0
 13  8  1  0
 24 19  1  0
 36 28  1  0
 36 31  1  0
 45 40  1  0
  1 46  1  0
  1 47  1  0
  1 48  1  0
  3 49  1  0
  3 50  1  0
  3 51  1  0
  4 52  1  0
  4 53  1  0
  4 54  1  0
  5 55  1  0
  8 56  1  0
  9 57  1  0
  9 58  1  0
 11 59  1  0
 11 60  1  0
 12 61  1  0
 12 62  1  0
 14 63  1  0
 14 64  1  0
 15 65  1  0
 16 66  1  0
 16 67  1  0
 17 68  1  0
 18 69  1  0
 18 70  1  0
 20 71  1  0
 21 72  1  0
 22 73  1  0
 23 74  1  0
 24 75  1  0
 27 76  1  0
 28 77  1  0
 29 78  1  0
 30 79  1  0
 30 80  1  0
 32 81  1  0
 33 82  1  0
 34 83  1  0
 35 84  1  0
 37 85  1  0
 38 86  1  0
 39 87  1  0
 39 88  1  0
 41 89  1  0
 43 90  1  0
 44 91  1  0
 45 92  1  0
M  END
>  <LIG_ID>  (269) 
268

>  <_smiles>  (269) 
CC(C)(C)NC(=O)C1CN(CCN1CC(CC(CC2=CC=CC=C2)C(=O)NC3C(CC4=CC=CC=C34)O)O)CC5=CN=CC=C5

>  <_name>  (269) 
Indinavir

>  <_molecular_weight>  (269) 
613.8

>  <_formula>  (269) 
C36H47N5O4

>  <_logP>  (269) 
2.866900000000004

>  <_molecular_wt_calculated>  (269) 
613.803000000002

>  <_havy_atom_count>  (269) 
45

>  <_hydrogen_acceptors>  (269) 
7

>  <_hydrogen_donors>  (269) 
4

>  <_rotatable_bonds>  (269) 
13

>  <_amide_bonds>  (269) 
2

>  <_ring_count>  (269) 
5

$$$$
Lopinavir
     RDKit          3D

 94 97  0  0  0  0  0  0  0  0999 V2000
    4.9921    0.2093    1.0407 C   0  0  0  0  0  0  0  0  0  0  0  0
    4.3193    1.4998    1.4169 C   0  0  0  0  0  0  0  0  0  0  0  0
    4.6353    2.7084    0.7588 C   0  0  0  0  0  0  0  0  0  0  0  0
    3.9758    3.9025    1.1332 C   0  0  0  0  0  0  0  0  0  0  0  0
    2.9600    3.8562    2.1011 C   0  0  0  0  0  0  0  0  0  0  0  0
    2.6255    2.6516    2.7193 C   0  0  0  0  0  0  0  0  0  0  0  0
    3.3014    1.4810    2.3803 C   0  0  0  0  0  0  0  0  0  0  0  0
    4.3169    5.2227    0.5010 C   0  0  0  0  0  0  0  0  0  0  0  0
    5.6182    2.7095   -0.2418 O   0  0  0  0  0  0  0  0  0  0  0  0
    5.3147    2.8584   -1.6289 C   0  0  0  0  0  0  0  0  0  0  0  0
    4.4804    1.7089   -2.1000 C   0  0  0  0  0  0  0  0  0  0  0  0
    5.0381    0.6161   -2.3901 O   0  0  0  0  0  0  0  0  0  0  0  0
    3.0528    1.8318   -2.1473 N   0  0  0  0  0  0  0  0  0  0  0  0
    2.1582    0.6709   -2.0761 C   0  0  0  0  0  0  0  0  0  0  0  0
    1.5766    0.4149   -3.4820 C   0  0  0  0  0  0  0  0  0  0  0  0
    0.7301   -0.8315   -3.5390 C   0  0  0  0  0  0  0  0  0  0  0  0
    1.3326   -2.1000   -3.4858 C   0  0  0  0  0  0  0  0  0  0  0  0
    0.5441   -3.2550   -3.4921 C   0  0  0  0  0  0  0  0  0  0  0  0
   -0.8479   -3.1525   -3.5607 C   0  0  0  0  0  0  0  0  0  0  0  0
   -1.4529   -1.8951   -3.6257 C   0  0  0  0  0  0  0  0  0  0  0  0
   -0.6702   -0.7379   -3.6092 C   0  0  0  0  0  0  0  0  0  0  0  0
    1.0453    0.8907   -0.9975 C   0  0  0  0  0  0  0  0  0  0  0  0
    0.8341   -0.3886   -0.1597 C   0  0  0  0  0  0  0  0  0  0  0  0
   -0.3397   -0.2647    0.8368 C   0  0  0  0  0  0  0  0  0  0  0  0
   -0.4543   -1.5217    1.7233 C   0  0  0  0  0  0  0  0  0  0  0  0
    0.6670   -1.6186    2.7263 C   0  0  0  0  0  0  0  0  0  0  0  0
    0.6105   -0.8798    3.9202 C   0  0  0  0  0  0  0  0  0  0  0  0
    1.6481   -0.9684    4.8535 C   0  0  0  0  0  0  0  0  0  0  0  0
    2.7539   -1.7838    4.5961 C   0  0  0  0  0  0  0  0  0  0  0  0
    2.8235   -2.5119    3.4051 C   0  0  0  0  0  0  0  0  0  0  0  0
    1.7841   -2.4328    2.4732 C   0  0  0  0  0  0  0  0  0  0  0  0
   -1.6003   -0.0784    0.1107 N   0  0  0  0  0  0  0  0  0  0  0  0
   -2.7466    0.5403    0.7121 C   0  0  0  0  0  0  0  0  0  0  0  0
   -2.6196    1.1762    1.7945 O   0  0  0  0  0  0  0  0  0  0  0  0
   -4.0882    0.4701    0.0098 C   0  0  0  0  0  0  0  0  0  0  0  0
   -5.2578    1.1210    0.8121 C   0  0  0  0  0  0  0  0  0  0  0  0
   -6.4998    1.3119   -0.0696 C   0  0  0  0  0  0  0  0  0  0  0  0
   -5.6411    0.3623    2.0940 C   0  0  0  0  0  0  0  0  0  0  0  0
   -4.3993   -0.9153   -0.4149 N   0  0  0  0  0  0  0  0  0  0  0  0
   -4.2565   -2.0630    0.4950 C   0  0  0  0  0  0  0  0  0  0  0  0
   -3.5197   -3.2019   -0.2103 C   0  0  0  0  0  0  0  0  0  0  0  0
   -4.3244   -3.6675   -1.4288 C   0  0  0  0  0  0  0  0  0  0  0  0
   -4.7213   -2.5403   -2.2729 N   0  0  0  0  0  0  0  0  0  0  0  0
   -4.7890   -1.1979   -1.7742 C   0  0  0  0  0  0  0  0  0  0  0  0
   -5.1630   -0.2713   -2.5426 O   0  0  0  0  0  0  0  0  0  0  0  0
    1.3953    1.9346   -0.1220 O   0  0  0  0  0  0  0  0  0  0  0  0
    5.0281   -0.4815    1.9101 H   0  0  0  0  0  0  0  0  0  0  0  0
    4.4235   -0.2791    0.2229 H   0  0  0  0  0  0  0  0  0  0  0  0
    6.0362    0.3853    0.7074 H   0  0  0  0  0  0  0  0  0  0  0  0
    2.4269    4.7568    2.3805 H   0  0  0  0  0  0  0  0  0  0  0  0
    1.8378    2.6240    3.4612 H   0  0  0  0  0  0  0  0  0  0  0  0
    3.0250    0.5546    2.8620 H   0  0  0  0  0  0  0  0  0  0  0  0
    4.1651    6.0524    1.2241 H   0  0  0  0  0  0  0  0  0  0  0  0
    3.6609    5.3940   -0.3777 H   0  0  0  0  0  0  0  0  0  0  0  0
    5.3803    5.2506    0.1835 H   0  0  0  0  0  0  0  0  0  0  0  0
    6.2656    2.8794   -2.2014 H   0  0  0  0  0  0  0  0  0  0  0  0
    4.7906    3.8168   -1.8168 H   0  0  0  0  0  0  0  0  0  0  0  0
    2.6378    2.7853   -2.2532 H   0  0  0  0  0  0  0  0  0  0  0  0
    2.7617   -0.2212   -1.7941 H   0  0  0  0  0  0  0  0  0  0  0  0
    0.9887    1.3014   -3.8082 H   0  0  0  0  0  0  0  0  0  0  0  0
    2.4139    0.3052   -4.2057 H   0  0  0  0  0  0  0  0  0  0  0  0
    2.4100   -2.1923   -3.4269 H   0  0  0  0  0  0  0  0  0  0  0  0
    1.0124   -4.2294   -3.4430 H   0  0  0  0  0  0  0  0  0  0  0  0
   -1.4574   -4.0468   -3.5671 H   0  0  0  0  0  0  0  0  0  0  0  0
   -2.5285   -1.8152   -3.6905 H   0  0  0  0  0  0  0  0  0  0  0  0
   -1.1565    0.2290   -3.6453 H   0  0  0  0  0  0  0  0  0  0  0  0
    0.0833    1.1408   -1.5044 H   0  0  0  0  0  0  0  0  0  0  0  0
    1.7728   -0.5900    0.3994 H   0  0  0  0  0  0  0  0  0  0  0  0
    0.6498   -1.2575   -0.8257 H   0  0  0  0  0  0  0  0  0  0  0  0
   -0.1557    0.6193    1.4877 H   0  0  0  0  0  0  0  0  0  0  0  0
   -0.4878   -2.4332    1.0864 H   0  0  0  0  0  0  0  0  0  0  0  0
   -1.4158   -1.4934    2.2802 H   0  0  0  0  0  0  0  0  0  0  0  0
   -0.2372   -0.2382    4.1273 H   0  0  0  0  0  0  0  0  0  0  0  0
    1.5986   -0.3991    5.7725 H   0  0  0  0  0  0  0  0  0  0  0  0
    3.5592   -1.8464    5.3163 H   0  0  0  0  0  0  0  0  0  0  0  0
    3.6833   -3.1375    3.2037 H   0  0  0  0  0  0  0  0  0  0  0  0
    1.8514   -3.0015    1.5540 H   0  0  0  0  0  0  0  0  0  0  0  0
   -1.7126   -0.5196   -0.8301 H   0  0  0  0  0  0  0  0  0  0  0  0
   -3.9416    1.1006   -0.8949 H   0  0  0  0  0  0  0  0  0  0  0  0
   -4.9295    2.1401    1.1167 H   0  0  0  0  0  0  0  0  0  0  0  0
   -6.2449    1.9057   -0.9730 H   0  0  0  0  0  0  0  0  0  0  0  0
   -7.2852    1.8625    0.4911 H   0  0  0  0  0  0  0  0  0  0  0  0
   -6.9143    0.3312   -0.3860 H   0  0  0  0  0  0  0  0  0  0  0  0
   -4.7480    0.1141    2.7022 H   0  0  0  0  0  0  0  0  0  0  0  0
   -6.1903   -0.5714    1.8579 H   0  0  0  0  0  0  0  0  0  0  0  0
   -6.3076    0.9966    2.7165 H   0  0  0  0  0  0  0  0  0  0  0  0
   -3.7096   -1.7865    1.4192 H   0  0  0  0  0  0  0  0  0  0  0  0
   -5.2647   -2.4216    0.7942 H   0  0  0  0  0  0  0  0  0  0  0  0
   -3.3843   -4.0521    0.4922 H   0  0  0  0  0  0  0  0  0  0  0  0
   -2.5153   -2.8553   -0.5362 H   0  0  0  0  0  0  0  0  0  0  0  0
   -3.7082   -4.3740   -2.0248 H   0  0  0  0  0  0  0  0  0  0  0  0
   -5.2371   -4.2037   -1.0904 H   0  0  0  0  0  0  0  0  0  0  0  0
   -5.0630   -2.7389   -3.2401 H   0  0  0  0  0  0  0  0  0  0  0  0
    0.9900    2.7688   -0.4763 H   0  0  0  0  0  0  0  0  0  0  0  0
  1  2  1  0
  2  3  2  0
  3  4  1  0
  4  5  2  0
  5  6  1  0
  6  7  2  0
  4  8  1  0
  3  9  1  0
  9 10  1  0
 10 11  1  0
 11 12  2  0
 11 13  1  0
 13 14  1  0
 14 15  1  0
 15 16  1  0
 16 17  2  0
 17 18  1  0
 18 19  2  0
 19 20  1  0
 20 21  2  0
 14 22  1  0
 22 23  1  0
 23 24  1  0
 24 25  1  0
 25 26  1  0
 26 27  2  0
 27 28  1  0
 28 29  2  0
 29 30  1  0
 30 31  2  0
 24 32  1  0
 32 33  1  0
 33 34  2  0
 33 35  1  0
 35 36  1  0
 36 37  1  0
 36 38  1  0
 35 39  1  0
 39 40  1  0
 40 41  1  0
 41 42  1  0
 42 43  1  0
 43 44  1  0
 44 45  2  0
 22 46  1  0
  7  2  1  0
 21 16  1  0
 31 26  1  0
 44 39  1  0
  1 47  1  0
  1 48  1  0
  1 49  1  0
  5 50  1  0
  6 51  1  0
  7 52  1  0
  8 53  1  0
  8 54  1  0
  8 55  1  0
 10 56  1  0
 10 57  1  0
 13 58  1  0
 14 59  1  0
 15 60  1  0
 15 61  1  0
 17 62  1  0
 18 63  1  0
 19 64  1  0
 20 65  1  0
 21 66  1  0
 22 67  1  0
 23 68  1  0
 23 69  1  0
 24 70  1  0
 25 71  1  0
 25 72  1  0
 27 73  1  0
 28 74  1  0
 29 75  1  0
 30 76  1  0
 31 77  1  0
 32 78  1  0
 35 79  1  0
 36 80  1  0
 37 81  1  0
 37 82  1  0
 37 83  1  0
 38 84  1  0
 38 85  1  0
 38 86  1  0
 40 87  1  0
 40 88  1  0
 41 89  1  0
 41 90  1  0
 42 91  1  0
 42 92  1  0
 43 93  1  0
 46 94  1  0
M  END
>  <LIG_ID>  (270) 
269

>  <_smiles>  (270) 
CC1=C(C(=CC=C1)C)OCC(=O)NC(CC2=CC=CC=C2)C(CC(CC3=CC=CC=C3)NC(=O)C(C(C)C)N4CCCNC4=O)O

>  <_name>  (270) 
Lopinavir

>  <_molecular_weight>  (270) 
628.8

>  <_formula>  (270) 
C37H48N4O5

>  <_logP>  (270) 
4.328140000000004

>  <_molecular_wt_calculated>  (270) 
628.8140000000022

>  <_havy_atom_count>  (270) 
46

>  <_hydrogen_acceptors>  (270) 
5

>  <_hydrogen_donors>  (270) 
4

>  <_rotatable_bonds>  (270) 
20

>  <_amide_bonds>  (270) 
4

>  <_ring_count>  (270) 
4

$$$$
Atazanavir
     RDKit          3D

103105  0  0  0  0  0  0  0  0999 V2000
   -5.8656   -0.4392   -0.8339 C   0  0  0  0  0  0  0  0  0  0  0  0
   -5.2885    0.8871   -0.2855 C   0  0  0  0  0  0  0  0  0  0  0  0
   -6.1341    1.3268    0.9304 C   0  0  0  0  0  0  0  0  0  0  0  0
   -5.4250    1.9696   -1.3803 C   0  0  0  0  0  0  0  0  0  0  0  0
   -3.7861    0.7605    0.1490 C   0  0  0  0  0  0  0  0  0  0  0  0
   -2.8694    0.3343   -0.9730 C   0  0  0  0  0  0  0  0  0  0  0  0
   -2.8314   -0.8781   -1.3105 O   0  0  0  0  0  0  0  0  0  0  0  0
   -2.0571    1.3126   -1.6478 N   0  0  0  0  0  0  0  0  0  0  0  0
   -0.7437    1.0728   -2.2756 C   0  0  0  0  0  0  0  0  0  0  0  0
   -0.8441    0.5676   -3.7388 C   0  0  0  0  0  0  0  0  0  0  0  0
   -1.8051   -0.5706   -3.9708 C   0  0  0  0  0  0  0  0  0  0  0  0
   -1.3596   -1.9036   -3.9436 C   0  0  0  0  0  0  0  0  0  0  0  0
   -2.2624   -2.9523   -4.1459 C   0  0  0  0  0  0  0  0  0  0  0  0
   -3.6108   -2.6794   -4.3906 C   0  0  0  0  0  0  0  0  0  0  0  0
   -4.0585   -1.3569   -4.4410 C   0  0  0  0  0  0  0  0  0  0  0  0
   -3.1604   -0.3052   -4.2374 C   0  0  0  0  0  0  0  0  0  0  0  0
    0.2541    0.2820   -1.3805 C   0  0  0  0  0  0  0  0  0  0  0  0
    0.3626    0.8943    0.0410 C   0  0  0  0  0  0  0  0  0  0  0  0
    1.5082    0.3304    0.7854 N   0  0  0  0  0  0  0  0  0  0  0  0
    1.8328    1.1492    1.9668 C   0  0  0  0  0  0  0  0  0  0  0  0
    2.6234    2.3642    1.5610 C   0  0  0  0  0  0  0  0  0  0  0  0
    3.9162    2.2164    1.0398 C   0  0  0  0  0  0  0  0  0  0  0  0
    4.6503    3.3366    0.6403 C   0  0  0  0  0  0  0  0  0  0  0  0
    4.1040    4.6292    0.7586 C   0  0  0  0  0  0  0  0  0  0  0  0
    2.8005    4.7687    1.2689 C   0  0  0  0  0  0  0  0  0  0  0  0
    2.0687    3.6475    1.6693 C   0  0  0  0  0  0  0  0  0  0  0  0
    4.8624    5.8327    0.3300 C   0  0  0  0  0  0  0  0  0  0  0  0
    6.2687    5.8765    0.3747 C   0  0  0  0  0  0  0  0  0  0  0  0
    6.9350    7.0332   -0.0357 C   0  0  0  0  0  0  0  0  0  0  0  0
    6.2061    8.1358   -0.4807 C   0  0  0  0  0  0  0  0  0  0  0  0
    4.8130    8.0670   -0.5038 C   0  0  0  0  0  0  0  0  0  0  0  0
    4.1808    6.9326   -0.1014 N   0  0  0  0  0  0  0  0  0  0  0  0
    1.1654   -0.9587    1.2381 N   0  0  0  0  0  0  0  0  0  0  0  0
    1.9766   -2.0843    0.8920 C   0  0  0  0  0  0  0  0  0  0  0  0
    3.0551   -1.9080    0.2619 O   0  0  0  0  0  0  0  0  0  0  0  0
    1.5468   -3.4784    1.2822 C   0  0  0  0  0  0  0  0  0  0  0  0
    2.1309   -3.9390    2.6650 C   0  0  0  0  0  0  0  0  0  0  0  0
    3.6759   -3.8702    2.7071 C   0  0  0  0  0  0  0  0  0  0  0  0
    1.5727   -3.0409    3.7934 C   0  0  0  0  0  0  0  0  0  0  0  0
    1.6898   -5.3917    2.9522 C   0  0  0  0  0  0  0  0  0  0  0  0
    1.8843   -4.4124    0.1982 N   0  0  0  0  0  0  0  0  0  0  0  0
    1.0237   -4.6295   -0.9272 C   0  0  0  0  0  0  0  0  0  0  0  0
   -0.1312   -4.1216   -0.9573 O   0  0  0  0  0  0  0  0  0  0  0  0
    1.4798   -5.4094   -1.9934 O   0  0  0  0  0  0  0  0  0  0  0  0
    0.7096   -5.6250   -3.1696 C   0  0  0  0  0  0  0  0  0  0  0  0
   -0.0349   -1.0943   -1.3667 O   0  0  0  0  0  0  0  0  0  0  0  0
   -3.6165   -0.1629    1.2809 N   0  0  0  0  0  0  0  0  0  0  0  0
   -2.7817    0.1328    2.4084 C   0  0  0  0  0  0  0  0  0  0  0  0
   -2.3556    1.3051    2.6004 O   0  0  0  0  0  0  0  0  0  0  0  0
   -2.4424   -0.8940    3.2937 O   0  0  0  0  0  0  0  0  0  0  0  0
   -1.5940   -0.6879    4.4170 C   0  0  0  0  0  0  0  0  0  0  0  0
   -5.8139   -1.2501   -0.0794 H   0  0  0  0  0  0  0  0  0  0  0  0
   -5.3294   -0.7651   -1.7485 H   0  0  0  0  0  0  0  0  0  0  0  0
   -6.9348   -0.3100   -1.1088 H   0  0  0  0  0  0  0  0  0  0  0  0
   -7.1942    1.4883    0.6373 H   0  0  0  0  0  0  0  0  0  0  0  0
   -5.7441    2.2762    1.3568 H   0  0  0  0  0  0  0  0  0  0  0  0
   -6.1169    0.5530    1.7274 H   0  0  0  0  0  0  0  0  0  0  0  0
   -6.4915    2.1218   -1.6543 H   0  0  0  0  0  0  0  0  0  0  0  0
   -4.8789    1.6749   -2.3012 H   0  0  0  0  0  0  0  0  0  0  0  0
   -5.0169    2.9411   -1.0270 H   0  0  0  0  0  0  0  0  0  0  0  0
   -3.4622    1.7753    0.4702 H   0  0  0  0  0  0  0  0  0  0  0  0
   -2.3328    2.3138   -1.5286 H   0  0  0  0  0  0  0  0  0  0  0  0
   -0.2686    2.0760   -2.3811 H   0  0  0  0  0  0  0  0  0  0  0  0
   -1.1559    1.4210   -4.3814 H   0  0  0  0  0  0  0  0  0  0  0  0
    0.1681    0.2813   -4.1000 H   0  0  0  0  0  0  0  0  0  0  0  0
   -0.3162   -2.1311   -3.7663 H   0  0  0  0  0  0  0  0  0  0  0  0
   -1.9171   -3.9773   -4.1150 H   0  0  0  0  0  0  0  0  0  0  0  0
   -4.3079   -3.4926   -4.5455 H   0  0  0  0  0  0  0  0  0  0  0  0
   -5.1026   -1.1463   -4.6331 H   0  0  0  0  0  0  0  0  0  0  0  0
   -3.5221    0.7147   -4.2734 H   0  0  0  0  0  0  0  0  0  0  0  0
    1.2580    0.3909   -1.8477 H   0  0  0  0  0  0  0  0  0  0  0  0
   -0.5837    0.7489    0.6046 H   0  0  0  0  0  0  0  0  0  0  0  0
    0.4984    1.9915   -0.0796 H   0  0  0  0  0  0  0  0  0  0  0  0
    0.9084    1.4311    2.5222 H   0  0  0  0  0  0  0  0  0  0  0  0
    2.4625    0.5625    2.6737 H   0  0  0  0  0  0  0  0  0  0  0  0
    4.3518    1.2302    0.9339 H   0  0  0  0  0  0  0  0  0  0  0  0
    5.6331    3.1827    0.2155 H   0  0  0  0  0  0  0  0  0  0  0  0
    2.3490    5.7480    1.3687 H   0  0  0  0  0  0  0  0  0  0  0  0
    1.0670    3.7813    2.0586 H   0  0  0  0  0  0  0  0  0  0  0  0
    6.8489    5.0414    0.7436 H   0  0  0  0  0  0  0  0  0  0  0  0
    8.0160    7.0766   -0.0023 H   0  0  0  0  0  0  0  0  0  0  0  0
    6.7151    9.0364   -0.7989 H   0  0  0  0  0  0  0  0  0  0  0  0
    4.2329    8.9155   -0.8410 H   0  0  0  0  0  0  0  0  0  0  0  0
    0.3188   -1.0994    1.8371 H   0  0  0  0  0  0  0  0  0  0  0  0
    0.4388   -3.4659    1.3904 H   0  0  0  0  0  0  0  0  0  0  0  0
    4.0355   -2.8318    2.5493 H   0  0  0  0  0  0  0  0  0  0  0  0
    4.0504   -4.2046    3.6989 H   0  0  0  0  0  0  0  0  0  0  0  0
    4.1373   -4.5256    1.9413 H   0  0  0  0  0  0  0  0  0  0  0  0
    0.4615   -3.0460    3.7870 H   0  0  0  0  0  0  0  0  0  0  0  0
    1.9130   -3.3998    4.7889 H   0  0  0  0  0  0  0  0  0  0  0  0
    1.9206   -1.9925    3.6793 H   0  0  0  0  0  0  0  0  0  0  0  0
    0.5823   -5.4787    2.9153 H   0  0  0  0  0  0  0  0  0  0  0  0
    2.0301   -5.7164    3.9594 H   0  0  0  0  0  0  0  0  0  0  0  0
    2.1208   -6.0952    2.2084 H   0  0  0  0  0  0  0  0  0  0  0  0
    2.8529   -4.7944    0.1293 H   0  0  0  0  0  0  0  0  0  0  0  0
   -0.2589   -6.1028   -2.9102 H   0  0  0  0  0  0  0  0  0  0  0  0
    1.2693   -6.2947   -3.8542 H   0  0  0  0  0  0  0  0  0  0  0  0
    0.5268   -4.6583   -3.6839 H   0  0  0  0  0  0  0  0  0  0  0  0
   -0.5970   -1.2993   -0.5782 H   0  0  0  0  0  0  0  0  0  0  0  0
   -3.9484   -1.1482    1.1864 H   0  0  0  0  0  0  0  0  0  0  0  0
   -0.5963   -0.3333    4.0816 H   0  0  0  0  0  0  0  0  0  0  0  0
   -2.0460    0.0596    5.1028 H   0  0  0  0  0  0  0  0  0  0  0  0
   -1.4702   -1.6464    4.9612 H   0  0  0  0  0  0  0  0  0  0  0  0
  1  2  1  0
  2  3  1  0
  2  4  1  0
  2  5  1  0
  5  6  1  0
  6  7  2  0
  6  8  1  0
  8  9  1  0
  9 10  1  0
 10 11  1  0
 11 12  2  0
 12 13  1  0
 13 14  2  0
 14 15  1  0
 15 16  2  0
  9 17  1  0
 17 18  1  0
 18 19  1  0
 19 20  1  0
 20 21  1  0
 21 22  2  0
 22 23  1  0
 23 24  2  0
 24 25  1  0
 25 26  2  0
 24 27  1  0
 27 28  2  0
 28 29  1  0
 29 30  2  0
 30 31  1  0
 31 32  2  0
 19 33  1  0
 33 34  1  0
 34 35  2  0
 34 36  1  0
 36 37  1  0
 37 38  1  0
 37 39  1  0
 37 40  1  0
 36 41  1  0
 41 42  1  0
 42 43  2  0
 42 44  1  0
 44 45  1  0
 17 46  1  0
  5 47  1  0
 47 48  1  0
 48 49  2  0
 48 50  1  0
 50 51  1  0
 16 11  1  0
 26 21  1  0
 32 27  1  0
  1 52  1  0
  1 53  1  0
  1 54  1  0
  3 55  1  0
  3 56  1  0
  3 57  1  0
  4 58  1  0
  4 59  1  0
  4 60  1  0
  5 61  1  0
  8 62  1  0
  9 63  1  0
 10 64  1  0
 10 65  1  0
 12 66  1  0
 13 67  1  0
 14 68  1  0
 15 69  1  0
 16 70  1  0
 17 71  1  0
 18 72  1  0
 18 73  1  0
 20 74  1  0
 20 75  1  0
 22 76  1  0
 23 77  1  0
 25 78  1  0
 26 79  1  0
 28 80  1  0
 29 81  1  0
 30 82  1  0
 31 83  1  0
 33 84  1  0
 36 85  1  0
 38 86  1  0
 38 87  1  0
 38 88  1  0
 39 89  1  0
 39 90  1  0
 39 91  1  0
 40 92  1  0
 40 93  1  0
 40 94  1  0
 41 95  1  0
 45 96  1  0
 45 97  1  0
 45 98  1  0
 46 99  1  0
 47100  1  0
 51101  1  0
 51102  1  0
 51103  1  0
M  END
>  <LIG_ID>  (271) 
270

>  <_smiles>  (271) 
CC(C)(C)C(C(=O)NC(CC1=CC=CC=C1)C(CN(CC2=CC=C(C=C2)C3=CC=CC=N3)NC(=O)C(C(C)(C)C)NC(=O)OC)O)NC(=O)OC

>  <_name>  (271) 
Atazanavir

>  <_molecular_weight>  (271) 
704.9

>  <_formula>  (271) 
C38H52N6O7

>  <_logP>  (271) 
4.2116000000000025

>  <_molecular_wt_calculated>  (271) 
704.8690000000023

>  <_havy_atom_count>  (271) 
51

>  <_hydrogen_acceptors>  (271) 
9

>  <_hydrogen_donors>  (271) 
5

>  <_rotatable_bonds>  (271) 
17

>  <_amide_bonds>  (271) 
4

>  <_ring_count>  (271) 
3

$$$$
Saquinavir
     RDKit          3D

 99103  0  0  0  0  0  0  0  0999 V2000
    1.5515    1.5058   -3.9341 C   0  0  0  0  0  0  0  0  0  0  0  0
    0.6885    1.8144   -2.6936 C   0  0  0  0  0  0  0  0  0  0  0  0
    0.1975    3.2718   -2.7871 C   0  0  0  0  0  0  0  0  0  0  0  0
    1.5562    1.6257   -1.4372 C   0  0  0  0  0  0  0  0  0  0  0  0
   -0.4607    0.8878   -2.6666 N   0  0  0  0  0  0  0  0  0  0  0  0
   -1.5213    0.9118   -1.6939 C   0  0  0  0  0  0  0  0  0  0  0  0
   -1.4187    1.6112   -0.6497 O   0  0  0  0  0  0  0  0  0  0  0  0
   -2.7532    0.0645   -1.9207 C   0  0  0  0  0  0  0  0  0  0  0  0
   -4.0099    0.6311   -1.2270 C   0  0  0  0  0  0  0  0  0  0  0  0
   -5.2455   -0.2144   -1.5844 C   0  0  0  0  0  0  0  0  0  0  0  0
   -6.5027    0.3044   -0.8378 C   0  0  0  0  0  0  0  0  0  0  0  0
   -7.5718   -0.7818   -0.6053 C   0  0  0  0  0  0  0  0  0  0  0  0
   -7.5449   -1.8484   -1.7026 C   0  0  0  0  0  0  0  0  0  0  0  0
   -6.1894   -2.5816   -1.7554 C   0  0  0  0  0  0  0  0  0  0  0  0
   -4.9940   -1.7102   -1.2878 C   0  0  0  0  0  0  0  0  0  0  0  0
   -3.6787   -2.1933   -1.9469 C   0  0  0  0  0  0  0  0  0  0  0  0
   -2.5190   -1.3580   -1.5660 N   0  0  0  0  0  0  0  0  0  0  0  0
   -2.0708   -1.6024   -0.1700 C   0  0  0  0  0  0  0  0  0  0  0  0
   -0.6262   -2.1259   -0.1736 C   0  0  0  0  0  0  0  0  0  0  0  0
   -0.0903   -2.3582    1.2678 C   0  0  0  0  0  0  0  0  0  0  0  0
   -0.5985   -3.6815    1.8875 C   0  0  0  0  0  0  0  0  0  0  0  0
   -0.2091   -3.7878    3.3405 C   0  0  0  0  0  0  0  0  0  0  0  0
    0.9080   -4.5478    3.7278 C   0  0  0  0  0  0  0  0  0  0  0  0
    1.2819   -4.6149    5.0736 C   0  0  0  0  0  0  0  0  0  0  0  0
    0.5477   -3.9224    6.0403 C   0  0  0  0  0  0  0  0  0  0  0  0
   -0.5611   -3.1601    5.6627 C   0  0  0  0  0  0  0  0  0  0  0  0
   -0.9382   -3.0899    4.3182 C   0  0  0  0  0  0  0  0  0  0  0  0
    1.3782   -2.3307    1.2579 N   0  0  0  0  0  0  0  0  0  0  0  0
    2.1092   -1.0954    1.2227 C   0  0  0  0  0  0  0  0  0  0  0  0
    1.4849   -0.0016    1.3008 O   0  0  0  0  0  0  0  0  0  0  0  0
    3.6221   -1.0900    1.1682 C   0  0  0  0  0  0  0  0  0  0  0  0
    4.1929   -1.9827    0.0432 C   0  0  0  0  0  0  0  0  0  0  0  0
    3.7119   -1.6010   -1.3297 C   0  0  0  0  0  0  0  0  0  0  0  0
    2.6115   -2.0433   -1.7536 O   0  0  0  0  0  0  0  0  0  0  0  0
    4.4890   -0.7346   -2.1569 N   0  0  0  0  0  0  0  0  0  0  0  0
    4.1215    0.2845    1.0305 N   0  0  0  0  0  0  0  0  0  0  0  0
    4.3114    1.1487    2.1628 C   0  0  0  0  0  0  0  0  0  0  0  0
    4.4090    0.6545    3.3195 O   0  0  0  0  0  0  0  0  0  0  0  0
    4.3741    2.6159    1.9815 C   0  0  0  0  0  0  0  0  0  0  0  0
    4.1709    3.1507    0.7448 N   0  0  0  0  0  0  0  0  0  0  0  0
    4.1912    4.4914    0.5211 C   0  0  0  0  0  0  0  0  0  0  0  0
    3.9731    4.9936   -0.7672 C   0  0  0  0  0  0  0  0  0  0  0  0
    3.9890    6.3738   -0.9912 C   0  0  0  0  0  0  0  0  0  0  0  0
    4.2242    7.2559    0.0688 C   0  0  0  0  0  0  0  0  0  0  0  0
    4.4445    6.7630    1.3593 C   0  0  0  0  0  0  0  0  0  0  0  0
    4.4287    5.3797    1.5925 C   0  0  0  0  0  0  0  0  0  0  0  0
    4.6423    4.8539    2.8719 C   0  0  0  0  0  0  0  0  0  0  0  0
    4.6142    3.4717    3.0702 C   0  0  0  0  0  0  0  0  0  0  0  0
   -0.5588   -3.3065   -0.9328 O   0  0  0  0  0  0  0  0  0  0  0  0
    2.4340    2.1801   -3.9841 H   0  0  0  0  0  0  0  0  0  0  0  0
    1.9134    0.4556   -3.9016 H   0  0  0  0  0  0  0  0  0  0  0  0
    0.9566    1.6386   -4.8635 H   0  0  0  0  0  0  0  0  0  0  0  0
   -0.4672    3.3979   -3.6686 H   0  0  0  0  0  0  0  0  0  0  0  0
   -0.3683    3.5672   -1.8797 H   0  0  0  0  0  0  0  0  0  0  0  0
    1.0580    3.9682   -2.8898 H   0  0  0  0  0  0  0  0  0  0  0  0
    1.0366    1.9807   -0.5246 H   0  0  0  0  0  0  0  0  0  0  0  0
    1.8055    0.5534   -1.3096 H   0  0  0  0  0  0  0  0  0  0  0  0
    2.5044    2.1968   -1.5239 H   0  0  0  0  0  0  0  0  0  0  0  0
   -0.5493    0.1816   -3.4334 H   0  0  0  0  0  0  0  0  0  0  0  0
   -2.9487    0.1166   -3.0163 H   0  0  0  0  0  0  0  0  0  0  0  0
   -3.8703    0.6502   -0.1249 H   0  0  0  0  0  0  0  0  0  0  0  0
   -4.1766    1.6775   -1.5661 H   0  0  0  0  0  0  0  0  0  0  0  0
   -5.4283   -0.1072   -2.6788 H   0  0  0  0  0  0  0  0  0  0  0  0
   -6.9478    1.1336   -1.4303 H   0  0  0  0  0  0  0  0  0  0  0  0
   -6.2266    0.7260    0.1538 H   0  0  0  0  0  0  0  0  0  0  0  0
   -7.3960   -1.2726    0.3775 H   0  0  0  0  0  0  0  0  0  0  0  0
   -8.5777   -0.3105   -0.5689 H   0  0  0  0  0  0  0  0  0  0  0  0
   -7.7421   -1.3604   -2.6828 H   0  0  0  0  0  0  0  0  0  0  0  0
   -8.3584   -2.5848   -1.5258 H   0  0  0  0  0  0  0  0  0  0  0  0
   -6.0349   -2.9341   -2.7989 H   0  0  0  0  0  0  0  0  0  0  0  0
   -6.2390   -3.4869   -1.1113 H   0  0  0  0  0  0  0  0  0  0  0  0
   -4.9025   -1.8283   -0.1851 H   0  0  0  0  0  0  0  0  0  0  0  0
   -3.4885   -3.2556   -1.6749 H   0  0  0  0  0  0  0  0  0  0  0  0
   -3.7854   -2.1714   -3.0542 H   0  0  0  0  0  0  0  0  0  0  0  0
   -2.1158   -0.6794    0.4450 H   0  0  0  0  0  0  0  0  0  0  0  0
   -2.7178   -2.3436    0.3449 H   0  0  0  0  0  0  0  0  0  0  0  0
   -0.0055   -1.3414   -0.6649 H   0  0  0  0  0  0  0  0  0  0  0  0
   -0.4517   -1.5291    1.9176 H   0  0  0  0  0  0  0  0  0  0  0  0
   -1.7045   -3.7408    1.8174 H   0  0  0  0  0  0  0  0  0  0  0  0
   -0.1957   -4.5492    1.3202 H   0  0  0  0  0  0  0  0  0  0  0  0
    1.4896   -5.0861    2.9899 H   0  0  0  0  0  0  0  0  0  0  0  0
    2.1423   -5.2023    5.3668 H   0  0  0  0  0  0  0  0  0  0  0  0
    0.8392   -3.9748    7.0813 H   0  0  0  0  0  0  0  0  0  0  0  0
   -1.1268   -2.6213    6.4117 H   0  0  0  0  0  0  0  0  0  0  0  0
   -1.7951   -2.4899    4.0373 H   0  0  0  0  0  0  0  0  0  0  0  0
    1.9074   -3.2303    1.2900 H   0  0  0  0  0  0  0  0  0  0  0  0
    3.9873   -1.5171    2.1275 H   0  0  0  0  0  0  0  0  0  0  0  0
    5.3025   -1.9237    0.0695 H   0  0  0  0  0  0  0  0  0  0  0  0
    3.9379   -3.0466    0.2334 H   0  0  0  0  0  0  0  0  0  0  0  0
    4.1481   -0.4673   -3.1066 H   0  0  0  0  0  0  0  0  0  0  0  0
    5.4056   -0.3598   -1.8262 H   0  0  0  0  0  0  0  0  0  0  0  0
    4.1129    0.7158    0.0801 H   0  0  0  0  0  0  0  0  0  0  0  0
    3.7923    4.3196   -1.5950 H   0  0  0  0  0  0  0  0  0  0  0  0
    3.8194    6.7606   -1.9877 H   0  0  0  0  0  0  0  0  0  0  0  0
    4.2357    8.3232   -0.1104 H   0  0  0  0  0  0  0  0  0  0  0  0
    4.6251    7.4584    2.1702 H   0  0  0  0  0  0  0  0  0  0  0  0
    4.8269    5.5087    3.7151 H   0  0  0  0  0  0  0  0  0  0  0  0
    4.7761    3.0770    4.0654 H   0  0  0  0  0  0  0  0  0  0  0  0
    0.4013   -3.4740   -1.1192 H   0  0  0  0  0  0  0  0  0  0  0  0
  1  2  1  0
  2  3  1  0
  2  4  1  0
  2  5  1  0
  5  6  1  0
  6  7  2  0
  6  8  1  0
  8  9  1  0
  9 10  1  0
 10 11  1  0
 11 12  1  0
 12 13  1  0
 13 14  1  0
 14 15  1  0
 15 16  1  0
 16 17  1  0
 17 18  1  0
 18 19  1  0
 19 20  1  0
 20 21  1  0
 21 22  1  0
 22 23  2  0
 23 24  1  0
 24 25  2  0
 25 26  1  0
 26 27  2  0
 20 28  1  0
 28 29  1  0
 29 30  2  0
 29 31  1  0
 31 32  1  0
 32 33  1  0
 33 34  2  0
 33 35  1  0
 31 36  1  0
 36 37  1  0
 37 38  2  0
 37 39  1  0
 39 40  2  0
 40 41  1  0
 41 42  2  0
 42 43  1  0
 43 44  2  0
 44 45  1  0
 45 46  2  0
 46 47  1  0
 47 48  2  0
 19 49  1  0
 17  8  1  0
 15 10  1  0
 27 22  1  0
 48 39  1  0
 46 41  1  0
  1 50  1  0
  1 51  1  0
  1 52  1  0
  3 53  1  0
  3 54  1  0
  3 55  1  0
  4 56  1  0
  4 57  1  0
  4 58  1  0
  5 59  1  0
  8 60  1  0
  9 61  1  0
  9 62  1  0
 10 63  1  0
 11 64  1  0
 11 65  1  0
 12 66  1  0
 12 67  1  0
 13 68  1  0
 13 69  1  0
 14 70  1  0
 14 71  1  0
 15 72  1  0
 16 73  1  0
 16 74  1  0
 18 75  1  0
 18 76  1  0
 19 77  1  0
 20 78  1  0
 21 79  1  0
 21 80  1  0
 23 81  1  0
 24 82  1  0
 25 83  1  0
 26 84  1  0
 27 85  1  0
 28 86  1  0
 31 87  1  0
 32 88  1  0
 32 89  1  0
 35 90  1  0
 35 91  1  0
 36 92  1  0
 42 93  1  0
 43 94  1  0
 44 95  1  0
 45 96  1  0
 47 97  1  0
 48 98  1  0
 49 99  1  0
M  END
>  <LIG_ID>  (272) 
271

>  <_smiles>  (272) 
CC(C)(C)NC(=O)C1CC2CCCCC2CN1CC(C(CC3=CC=CC=C3)NC(=O)C(CC(=O)N)NC(=O)C4=NC5=CC=CC=C5C=C4)O

>  <_name>  (272) 
Saquinavir

>  <_molecular_weight>  (272) 
670.8

>  <_formula>  (272) 
C38H50N6O5

>  <_logP>  (272) 
3.0924000000000027

>  <_molecular_wt_calculated>  (272) 
670.8550000000021

>  <_havy_atom_count>  (272) 
49

>  <_hydrogen_acceptors>  (272) 
7

>  <_hydrogen_donors>  (272) 
5

>  <_rotatable_bonds>  (272) 
13

>  <_amide_bonds>  (272) 
4

>  <_ring_count>  (272) 
5

$$$$
Ritonavir
     RDKit          3D

 98101  0  0  0  0  0  0  0  0999 V2000
   -9.8496   -1.0966   -0.4128 C   0  0  0  0  0  0  0  0  0  0  0  0
   -8.6868   -1.2011   -1.4037 C   0  0  0  0  0  0  0  0  0  0  0  0
   -7.8332   -2.4391   -1.1183 C   0  0  0  0  0  0  0  0  0  0  0  0
   -7.8412    0.0390   -1.3540 C   0  0  0  0  0  0  0  0  0  0  0  0
   -7.2234    0.4862   -0.2381 N   0  0  0  0  0  0  0  0  0  0  0  0
   -6.5029    1.6167   -0.4751 C   0  0  0  0  0  0  0  0  0  0  0  0
   -6.5590    2.0894   -1.7837 C   0  0  0  0  0  0  0  0  0  0  0  0
   -7.5246    1.0369   -2.6698 S   0  0  0  0  0  0  0  0  0  0  0  0
   -5.7558    2.3288    0.6140 C   0  0  0  0  0  0  0  0  0  0  0  0
   -5.1967    1.3703    1.5792 N   0  0  0  0  0  0  0  0  0  0  0  0
   -5.8103    1.2382    2.9054 C   0  0  0  0  0  0  0  0  0  0  0  0
   -4.0647    0.5312    1.2515 C   0  0  0  0  0  0  0  0  0  0  0  0
   -3.5811   -0.2258    2.1381 O   0  0  0  0  0  0  0  0  0  0  0  0
   -3.4895    0.5284   -0.0694 N   0  0  0  0  0  0  0  0  0  0  0  0
   -2.5232   -0.4892   -0.5096 C   0  0  0  0  0  0  0  0  0  0  0  0
   -3.2209   -1.6325   -1.2951 C   0  0  0  0  0  0  0  0  0  0  0  0
   -4.1352   -2.4563   -0.3785 C   0  0  0  0  0  0  0  0  0  0  0  0
   -4.0117   -1.1288   -2.5135 C   0  0  0  0  0  0  0  0  0  0  0  0
   -1.4188    0.1371   -1.3281 C   0  0  0  0  0  0  0  0  0  0  0  0
   -1.6279    1.2044   -1.9680 O   0  0  0  0  0  0  0  0  0  0  0  0
   -0.1397   -0.5103   -1.4046 N   0  0  0  0  0  0  0  0  0  0  0  0
    1.0211    0.1067   -2.0568 C   0  0  0  0  0  0  0  0  0  0  0  0
    1.8757   -0.9529   -2.7958 C   0  0  0  0  0  0  0  0  0  0  0  0
    2.7264   -1.8252   -1.9036 C   0  0  0  0  0  0  0  0  0  0  0  0
    2.1939   -2.9859   -1.3166 C   0  0  0  0  0  0  0  0  0  0  0  0
    2.9914   -3.7921   -0.4984 C   0  0  0  0  0  0  0  0  0  0  0  0
    4.3297   -3.4581   -0.2753 C   0  0  0  0  0  0  0  0  0  0  0  0
    4.8751   -2.3209   -0.8753 C   0  0  0  0  0  0  0  0  0  0  0  0
    4.0784   -1.5061   -1.6850 C   0  0  0  0  0  0  0  0  0  0  0  0
    1.8264    1.0117   -1.0831 C   0  0  0  0  0  0  0  0  0  0  0  0
    1.8271    0.5522    0.3970 C   0  0  0  0  0  0  0  0  0  0  0  0
    2.9410    1.2705    1.2024 C   0  0  0  0  0  0  0  0  0  0  0  0
    2.7781    1.0584    2.7227 C   0  0  0  0  0  0  0  0  0  0  0  0
    3.8795    1.7437    3.4917 C   0  0  0  0  0  0  0  0  0  0  0  0
    5.0100    1.0222    3.9116 C   0  0  0  0  0  0  0  0  0  0  0  0
    6.0486    1.6709    4.5865 C   0  0  0  0  0  0  0  0  0  0  0  0
    5.9694    3.0427    4.8413 C   0  0  0  0  0  0  0  0  0  0  0  0
    4.8526    3.7690    4.4189 C   0  0  0  0  0  0  0  0  0  0  0  0
    3.8120    3.1243    3.7429 C   0  0  0  0  0  0  0  0  0  0  0  0
    4.2510    0.7581    0.7864 N   0  0  0  0  0  0  0  0  0  0  0  0
    5.1930    1.5129    0.0179 C   0  0  0  0  0  0  0  0  0  0  0  0
    4.9839    2.7302   -0.2395 O   0  0  0  0  0  0  0  0  0  0  0  0
    6.3393    0.8742   -0.4583 O   0  0  0  0  0  0  0  0  0  0  0  0
    7.2808    1.5106   -1.3122 C   0  0  0  0  0  0  0  0  0  0  0  0
    8.3120    0.5145   -1.7228 C   0  0  0  0  0  0  0  0  0  0  0  0
    8.1354   -0.5003   -2.6547 C   0  0  0  0  0  0  0  0  0  0  0  0
    9.1997   -1.3351   -2.7921 N   0  0  0  0  0  0  0  0  0  0  0  0
   10.2199   -1.0034   -1.9695 C   0  0  0  0  0  0  0  0  0  0  0  0
    9.8336    0.3390   -1.0313 S   0  0  0  0  0  0  0  0  0  0  0  0
    0.5702    0.8514    0.9554 O   0  0  0  0  0  0  0  0  0  0  0  0
  -10.4658   -0.2007   -0.6418 H   0  0  0  0  0  0  0  0  0  0  0  0
   -9.4741   -1.0172    0.6304 H   0  0  0  0  0  0  0  0  0  0  0  0
  -10.4993   -1.9942   -0.4914 H   0  0  0  0  0  0  0  0  0  0  0  0
   -9.1128   -1.3034   -2.4260 H   0  0  0  0  0  0  0  0  0  0  0  0
   -7.4186   -2.4026   -0.0880 H   0  0  0  0  0  0  0  0  0  0  0  0
   -6.9936   -2.4991   -1.8438 H   0  0  0  0  0  0  0  0  0  0  0  0
   -8.4481   -3.3583   -1.2224 H   0  0  0  0  0  0  0  0  0  0  0  0
   -6.0673    2.9745   -2.1647 H   0  0  0  0  0  0  0  0  0  0  0  0
   -6.4603    3.0298    1.1098 H   0  0  0  0  0  0  0  0  0  0  0  0
   -4.9398    2.9554    0.1937 H   0  0  0  0  0  0  0  0  0  0  0  0
   -6.1396    0.1891    3.0623 H   0  0  0  0  0  0  0  0  0  0  0  0
   -6.6991    1.8942    3.0171 H   0  0  0  0  0  0  0  0  0  0  0  0
   -5.0723    1.5120    3.6886 H   0  0  0  0  0  0  0  0  0  0  0  0
   -3.8549    1.1881   -0.7890 H   0  0  0  0  0  0  0  0  0  0  0  0
   -2.0289   -0.9361    0.3808 H   0  0  0  0  0  0  0  0  0  0  0  0
   -2.4321   -2.3232   -1.6698 H   0  0  0  0  0  0  0  0  0  0  0  0
   -3.5612   -2.8481    0.4879 H   0  0  0  0  0  0  0  0  0  0  0  0
   -4.9772   -1.8382   -0.0027 H   0  0  0  0  0  0  0  0  0  0  0  0
   -4.5530   -3.3230   -0.9338 H   0  0  0  0  0  0  0  0  0  0  0  0
   -4.4184   -1.9909   -3.0838 H   0  0  0  0  0  0  0  0  0  0  0  0
   -3.3556   -0.5502   -3.1962 H   0  0  0  0  0  0  0  0  0  0  0  0
   -4.8617   -0.4895   -2.1984 H   0  0  0  0  0  0  0  0  0  0  0  0
    0.0017   -1.3733   -0.8354 H   0  0  0  0  0  0  0  0  0  0  0  0
    0.6501    0.7724   -2.8682 H   0  0  0  0  0  0  0  0  0  0  0  0
    2.5325   -0.4300   -3.5261 H   0  0  0  0  0  0  0  0  0  0  0  0
    1.2037   -1.5971   -3.4046 H   0  0  0  0  0  0  0  0  0  0  0  0
    1.1673   -3.2751   -1.5009 H   0  0  0  0  0  0  0  0  0  0  0  0
    2.5737   -4.6811   -0.0440 H   0  0  0  0  0  0  0  0  0  0  0  0
    4.9462   -4.0853    0.3555 H   0  0  0  0  0  0  0  0  0  0  0  0
    5.9143   -2.0672   -0.7096 H   0  0  0  0  0  0  0  0  0  0  0  0
    4.5177   -0.6298   -2.1448 H   0  0  0  0  0  0  0  0  0  0  0  0
    2.8632    1.1104   -1.4651 H   0  0  0  0  0  0  0  0  0  0  0  0
    1.3956    2.0370   -1.1205 H   0  0  0  0  0  0  0  0  0  0  0  0
    2.0198   -0.5458    0.4366 H   0  0  0  0  0  0  0  0  0  0  0  0
    2.8679    2.3638    1.0064 H   0  0  0  0  0  0  0  0  0  0  0  0
    2.7693   -0.0304    2.9519 H   0  0  0  0  0  0  0  0  0  0  0  0
    1.8038    1.4711    3.0633 H   0  0  0  0  0  0  0  0  0  0  0  0
    5.0897   -0.0391    3.7112 H   0  0  0  0  0  0  0  0  0  0  0  0
    6.9169    1.1107    4.9087 H   0  0  0  0  0  0  0  0  0  0  0  0
    6.7749    3.5436    5.3626 H   0  0  0  0  0  0  0  0  0  0  0  0
    4.7949    4.8324    4.6116 H   0  0  0  0  0  0  0  0  0  0  0  0
    2.9566    3.7000    3.4114 H   0  0  0  0  0  0  0  0  0  0  0  0
    4.4872   -0.2353    1.0075 H   0  0  0  0  0  0  0  0  0  0  0  0
    6.7668    1.8997   -2.2178 H   0  0  0  0  0  0  0  0  0  0  0  0
    7.7629    2.3568   -0.7773 H   0  0  0  0  0  0  0  0  0  0  0  0
    7.2244   -0.6330   -3.2233 H   0  0  0  0  0  0  0  0  0  0  0  0
   11.1529   -1.5482   -1.9257 H   0  0  0  0  0  0  0  0  0  0  0  0
    0.3206    0.0943    1.5476 H   0  0  0  0  0  0  0  0  0  0  0  0
  1  2  1  0
  2  3  1  0
  2  4  1  0
  4  5  2  0
  5  6  1  0
  6  7  2  0
  7  8  1  0
  6  9  1  0
  9 10  1  0
 10 11  1  0
 10 12  1  0
 12 13  2  0
 12 14  1  0
 14 15  1  0
 15 16  1  0
 16 17  1  0
 16 18  1  0
 15 19  1  0
 19 20  2  0
 19 21  1  0
 21 22  1  0
 22 23  1  0
 23 24  1  0
 24 25  2  0
 25 26  1  0
 26 27  2  0
 27 28  1  0
 28 29  2  0
 22 30  1  0
 30 31  1  0
 31 32  1  0
 32 33  1  0
 33 34  1  0
 34 35  2  0
 35 36  1  0
 36 37  2  0
 37 38  1  0
 38 39  2  0
 32 40  1  0
 40 41  1  0
 41 42  2  0
 41 43  1  0
 43 44  1  0
 44 45  1  0
 45 46  2  0
 46 47  1  0
 47 48  2  0
 48 49  1  0
 31 50  1  0
  8  4  1  0
 29 24  1  0
 39 34  1  0
 49 45  1  0
  1 51  1  0
  1 52  1  0
  1 53  1  0
  2 54  1  0
  3 55  1  0
  3 56  1  0
  3 57  1  0
  7 58  1  0
  9 59  1  0
  9 60  1  0
 11 61  1  0
 11 62  1  0
 11 63  1  0
 14 64  1  0
 15 65  1  0
 16 66  1  0
 17 67  1  0
 17 68  1  0
 17 69  1  0
 18 70  1  0
 18 71  1  0
 18 72  1  0
 21 73  1  0
 22 74  1  0
 23 75  1  0
 23 76  1  0
 25 77  1  0
 26 78  1  0
 27 79  1  0
 28 80  1  0
 29 81  1  0
 30 82  1  0
 30 83  1  0
 31 84  1  0
 32 85  1  0
 33 86  1  0
 33 87  1  0
 35 88  1  0
 36 89  1  0
 37 90  1  0
 38 91  1  0
 39 92  1  0
 40 93  1  0
 44 94  1  0
 44 95  1  0
 46 96  1  0
 48 97  1  0
 50 98  1  0
M  END
>  <LIG_ID>  (273) 
272

>  <_smiles>  (273) 
CC(C)C1=NC(=CS1)CN(C)C(=O)NC(C(C)C)C(=O)NC(CC2=CC=CC=C2)CC(C(CC3=CC=CC=C3)NC(=O)OCC4=CN=CS4)O

>  <_name>  (273) 
Ritonavir

>  <_molecular_weight>  (273) 
720.9

>  <_formula>  (273) 
C37H48N6O5S2

>  <_logP>  (273) 
5.905200000000007

>  <_molecular_wt_calculated>  (273) 
720.9620000000021

>  <_havy_atom_count>  (273) 
50

>  <_hydrogen_acceptors>  (273) 
9

>  <_hydrogen_donors>  (273) 
4

>  <_rotatable_bonds>  (273) 
23

>  <_amide_bonds>  (273) 
4

>  <_ring_count>  (273) 
4

$$$$
Nelfinavir
     RDKit          3D

 85 88  0  0  0  0  0  0  0  0999 V2000
   -5.3168    2.0466   -1.8253 C   0  0  0  0  0  0  0  0  0  0  0  0
   -5.4417    3.1902   -0.8476 C   0  0  0  0  0  0  0  0  0  0  0  0
   -4.3289    3.6452   -0.0910 C   0  0  0  0  0  0  0  0  0  0  0  0
   -4.4747    4.7630    0.7466 C   0  0  0  0  0  0  0  0  0  0  0  0
   -5.7102    5.3946    0.8801 C   0  0  0  0  0  0  0  0  0  0  0  0
   -6.8172    4.9203    0.1801 C   0  0  0  0  0  0  0  0  0  0  0  0
   -6.6933    3.8221   -0.6803 C   0  0  0  0  0  0  0  0  0  0  0  0
   -7.8131    3.3598   -1.3727 O   0  0  0  0  0  0  0  0  0  0  0  0
   -3.0070    2.9833   -0.1463 C   0  0  0  0  0  0  0  0  0  0  0  0
   -1.9705    3.6876   -0.2888 O   0  0  0  0  0  0  0  0  0  0  0  0
   -2.8942    1.5620    0.0272 N   0  0  0  0  0  0  0  0  0  0  0  0
   -1.6118    0.8552   -0.0861 C   0  0  0  0  0  0  0  0  0  0  0  0
   -1.6806   -0.5065    0.6417 C   0  0  0  0  0  0  0  0  0  0  0  0
   -2.8075   -1.7032   -0.1596 S   0  0  0  0  0  0  0  0  0  0  0  0
   -2.1587   -3.0940    0.7692 C   0  0  0  0  0  0  0  0  0  0  0  0
   -1.0764   -3.8272    0.2656 C   0  0  0  0  0  0  0  0  0  0  0  0
   -0.5458   -4.8890    1.0043 C   0  0  0  0  0  0  0  0  0  0  0  0
   -1.0987   -5.2236    2.2445 C   0  0  0  0  0  0  0  0  0  0  0  0
   -2.1821   -4.4957    2.7470 C   0  0  0  0  0  0  0  0  0  0  0  0
   -2.7127   -3.4317    2.0103 C   0  0  0  0  0  0  0  0  0  0  0  0
   -1.1637    0.7835   -1.5764 C   0  0  0  0  0  0  0  0  0  0  0  0
    0.0855   -0.0952   -1.8195 C   0  0  0  0  0  0  0  0  0  0  0  0
    1.1393    0.1669   -0.8128 N   0  0  0  0  0  0  0  0  0  0  0  0
    1.8598    1.4553   -1.0280 C   0  0  0  0  0  0  0  0  0  0  0  0
    3.3721    1.2896   -1.2676 C   0  0  0  0  0  0  0  0  0  0  0  0
    4.0305    2.5816   -1.8285 C   0  0  0  0  0  0  0  0  0  0  0  0
    4.3939    2.4644   -3.3140 C   0  0  0  0  0  0  0  0  0  0  0  0
    5.3325    1.2692   -3.5786 C   0  0  0  0  0  0  0  0  0  0  0  0
    5.0243    0.0309   -2.7068 C   0  0  0  0  0  0  0  0  0  0  0  0
    3.5853    0.0624   -2.1679 C   0  0  0  0  0  0  0  0  0  0  0  0
    3.2281   -1.2052   -1.3818 C   0  0  0  0  0  0  0  0  0  0  0  0
    1.9650   -1.0333   -0.4891 C   0  0  0  0  0  0  0  0  0  0  0  0
    2.3028   -1.0488    0.9823 C   0  0  0  0  0  0  0  0  0  0  0  0
    2.3993    0.0341    1.6198 O   0  0  0  0  0  0  0  0  0  0  0  0
    2.5094   -2.3082    1.6473 N   0  0  0  0  0  0  0  0  0  0  0  0
    2.4307   -2.5079    3.1070 C   0  0  0  0  0  0  0  0  0  0  0  0
    1.0671   -2.0179    3.6335 C   0  0  0  0  0  0  0  0  0  0  0  0
    2.5651   -4.0129    3.4164 C   0  0  0  0  0  0  0  0  0  0  0  0
    3.5791   -1.7602    3.8120 C   0  0  0  0  0  0  0  0  0  0  0  0
   -2.2238    0.3199   -2.3736 O   0  0  0  0  0  0  0  0  0  0  0  0
   -6.0463    2.1464   -2.6561 H   0  0  0  0  0  0  0  0  0  0  0  0
   -4.3112    2.0327   -2.2926 H   0  0  0  0  0  0  0  0  0  0  0  0
   -5.5017    1.0842   -1.3049 H   0  0  0  0  0  0  0  0  0  0  0  0
   -3.6326    5.1333    1.3191 H   0  0  0  0  0  0  0  0  0  0  0  0
   -5.8125    6.2474    1.5389 H   0  0  0  0  0  0  0  0  0  0  0  0
   -7.7744    5.4109    0.3032 H   0  0  0  0  0  0  0  0  0  0  0  0
   -8.7210    3.7980   -1.2694 H   0  0  0  0  0  0  0  0  0  0  0  0
   -3.7428    1.0370    0.3375 H   0  0  0  0  0  0  0  0  0  0  0  0
   -0.8486    1.4477    0.4664 H   0  0  0  0  0  0  0  0  0  0  0  0
   -2.0314   -0.3414    1.6833 H   0  0  0  0  0  0  0  0  0  0  0  0
   -0.6636   -0.9398    0.7186 H   0  0  0  0  0  0  0  0  0  0  0  0
   -0.6411   -3.5696   -0.6913 H   0  0  0  0  0  0  0  0  0  0  0  0
    0.2960   -5.4490    0.6182 H   0  0  0  0  0  0  0  0  0  0  0  0
   -0.6854   -6.0435    2.8174 H   0  0  0  0  0  0  0  0  0  0  0  0
   -2.6071   -4.7530    3.7084 H   0  0  0  0  0  0  0  0  0  0  0  0
   -3.5453   -2.8656    2.4080 H   0  0  0  0  0  0  0  0  0  0  0  0
   -0.9159    1.8235   -1.8897 H   0  0  0  0  0  0  0  0  0  0  0  0
   -0.2503   -1.1540   -1.7918 H   0  0  0  0  0  0  0  0  0  0  0  0
    0.4755    0.0791   -2.8464 H   0  0  0  0  0  0  0  0  0  0  0  0
    1.4286    2.0158   -1.8876 H   0  0  0  0  0  0  0  0  0  0  0  0
    1.7081    2.0958   -0.1332 H   0  0  0  0  0  0  0  0  0  0  0  0
    3.8545    1.0933   -0.2831 H   0  0  0  0  0  0  0  0  0  0  0  0
    3.3712    3.4647   -1.6803 H   0  0  0  0  0  0  0  0  0  0  0  0
    4.9658    2.7876   -1.2619 H   0  0  0  0  0  0  0  0  0  0  0  0
    3.4606    2.3456   -3.9072 H   0  0  0  0  0  0  0  0  0  0  0  0
    4.8858    3.4020   -3.6518 H   0  0  0  0  0  0  0  0  0  0  0  0
    6.3837    1.5827   -3.3967 H   0  0  0  0  0  0  0  0  0  0  0  0
    5.2537    0.9929   -4.6526 H   0  0  0  0  0  0  0  0  0  0  0  0
    5.1823   -0.8907   -3.3086 H   0  0  0  0  0  0  0  0  0  0  0  0
    5.7355    0.0001   -1.8513 H   0  0  0  0  0  0  0  0  0  0  0  0
    2.9012    0.1206   -3.0456 H   0  0  0  0  0  0  0  0  0  0  0  0
    3.0519   -2.0269   -2.1110 H   0  0  0  0  0  0  0  0  0  0  0  0
    4.0960   -1.5195   -0.7592 H   0  0  0  0  0  0  0  0  0  0  0  0
    1.3577   -1.9538   -0.6320 H   0  0  0  0  0  0  0  0  0  0  0  0
    2.6229   -3.1482    1.0340 H   0  0  0  0  0  0  0  0  0  0  0  0
    0.2408   -2.5146    3.0812 H   0  0  0  0  0  0  0  0  0  0  0  0
    0.9560   -0.9211    3.5077 H   0  0  0  0  0  0  0  0  0  0  0  0
    0.9583   -2.2483    4.7153 H   0  0  0  0  0  0  0  0  0  0  0  0
    1.7566   -4.5866    2.9160 H   0  0  0  0  0  0  0  0  0  0  0  0
    2.5013   -4.2020    4.5100 H   0  0  0  0  0  0  0  0  0  0  0  0
    3.5411   -4.3985    3.0503 H   0  0  0  0  0  0  0  0  0  0  0  0
    3.4640   -0.6608    3.7296 H   0  0  0  0  0  0  0  0  0  0  0  0
    4.5553   -2.0457    3.3644 H   0  0  0  0  0  0  0  0  0  0  0  0
    3.6013   -2.0103    4.8948 H   0  0  0  0  0  0  0  0  0  0  0  0
   -2.0150    0.5745   -3.3105 H   0  0  0  0  0  0  0  0  0  0  0  0
  1  2  1  0
  2  3  2  0
  3  4  1  0
  4  5  2  0
  5  6  1  0
  6  7  2  0
  7  8  1  0
  3  9  1  0
  9 10  2  0
  9 11  1  0
 11 12  1  0
 12 13  1  0
 13 14  1  0
 14 15  1  0
 15 16  2  0
 16 17  1  0
 17 18  2  0
 18 19  1  0
 19 20  2  0
 12 21  1  0
 21 22  1  0
 22 23  1  0
 23 24  1  0
 24 25  1  0
 25 26  1  0
 26 27  1  0
 27 28  1  0
 28 29  1  0
 29 30  1  0
 30 31  1  0
 31 32  1  0
 32 33  1  0
 33 34  2  0
 33 35  1  0
 35 36  1  0
 36 37  1  0
 36 38  1  0
 36 39  1  0
 21 40  1  0
  7  2  1  0
 20 15  1  0
 32 23  1  0
 30 25  1  0
  1 41  1  0
  1 42  1  0
  1 43  1  0
  4 44  1  0
  5 45  1  0
  6 46  1  0
  8 47  1  0
 11 48  1  0
 12 49  1  0
 13 50  1  0
 13 51  1  0
 16 52  1  0
 17 53  1  0
 18 54  1  0
 19 55  1  0
 20 56  1  0
 21 57  1  0
 22 58  1  0
 22 59  1  0
 24 60  1  0
 24 61  1  0
 25 62  1  0
 26 63  1  0
 26 64  1  0
 27 65  1  0
 27 66  1  0
 28 67  1  0
 28 68  1  0
 29 69  1  0
 29 70  1  0
 30 71  1  0
 31 72  1  0
 31 73  1  0
 32 74  1  0
 35 75  1  0
 37 76  1  0
 37 77  1  0
 37 78  1  0
 38 79  1  0
 38 80  1  0
 38 81  1  0
 39 82  1  0
 39 83  1  0
 39 84  1  0
 40 85  1  0
M  END
>  <LIG_ID>  (274) 
273

>  <_smiles>  (274) 
CC1=C(C=CC=C1O)C(=O)NC(CSC2=CC=CC=C2)C(CN3CC4CCCCC4CC3C(=O)NC(C)(C)C)O

>  <_name>  (274) 
Nelfinavir

>  <_molecular_weight>  (274) 
567.8

>  <_formula>  (274) 
C32H45N3O4S

>  <_logP>  (274) 
4.747620000000005

>  <_molecular_wt_calculated>  (274) 
567.7960000000021

>  <_havy_atom_count>  (274) 
40

>  <_hydrogen_acceptors>  (274) 
6

>  <_hydrogen_donors>  (274) 
4

>  <_rotatable_bonds>  (274) 
12

>  <_amide_bonds>  (274) 
2

>  <_ring_count>  (274) 
4

$$$$
Darunavir
     RDKit          3D

 75 78  0  0  0  0  0  0  0  0999 V2000
   -1.3774   -0.4922    4.8486 C   0  0  0  0  0  0  0  0  0  0  0  0
   -0.9475   -0.9026    3.4350 C   0  0  0  0  0  0  0  0  0  0  0  0
    0.5569   -0.6761    3.2550 C   0  0  0  0  0  0  0  0  0  0  0  0
   -1.7596   -0.1179    2.3808 C   0  0  0  0  0  0  0  0  0  0  0  0
   -1.4631   -0.5889    1.0070 N   0  0  0  0  0  0  0  0  0  0  0  0
   -1.6148    0.5231    0.0390 C   0  0  0  0  0  0  0  0  0  0  0  0
   -1.0805    0.1896   -1.3794 C   0  0  0  0  0  0  0  0  0  0  0  0
    0.4585    0.3648   -1.4942 C   0  0  0  0  0  0  0  0  0  0  0  0
    0.9936   -0.0696   -2.8793 C   0  0  0  0  0  0  0  0  0  0  0  0
    0.6092    0.8793   -3.9866 C   0  0  0  0  0  0  0  0  0  0  0  0
   -0.3531    0.5087   -4.9420 C   0  0  0  0  0  0  0  0  0  0  0  0
   -0.7137    1.3974   -5.9595 C   0  0  0  0  0  0  0  0  0  0  0  0
   -0.1158    2.6584   -6.0330 C   0  0  0  0  0  0  0  0  0  0  0  0
    0.8444    3.0330   -5.0891 C   0  0  0  0  0  0  0  0  0  0  0  0
    1.2075    2.1480   -4.0694 C   0  0  0  0  0  0  0  0  0  0  0  0
    1.1448   -0.4280   -0.4699 N   0  0  0  0  0  0  0  0  0  0  0  0
    2.4279   -0.0580    0.0503 C   0  0  0  0  0  0  0  0  0  0  0  0
    2.9405    1.0549   -0.2497 O   0  0  0  0  0  0  0  0  0  0  0  0
    3.1080   -0.9503    0.8848 O   0  0  0  0  0  0  0  0  0  0  0  0
    4.3866   -0.6773    1.4591 C   0  0  0  0  0  0  0  0  0  0  0  0
    4.8971   -1.9018    2.1890 C   0  0  0  0  0  0  0  0  0  0  0  0
    5.6584   -1.4750    3.2895 O   0  0  0  0  0  0  0  0  0  0  0  0
    5.1336   -0.2291    3.6891 C   0  0  0  0  0  0  0  0  0  0  0  0
    4.3011    0.3600    2.5648 C   0  0  0  0  0  0  0  0  0  0  0  0
    4.9839    1.6691    2.2462 C   0  0  0  0  0  0  0  0  0  0  0  0
    6.3311    1.5285    2.9162 C   0  0  0  0  0  0  0  0  0  0  0  0
    6.1942    0.6460    4.0017 O   0  0  0  0  0  0  0  0  0  0  0  0
   -1.7063    1.0550   -2.2924 O   0  0  0  0  0  0  0  0  0  0  0  0
   -2.4929   -1.9602    0.5914 S   0  0  0  0  0  6  0  0  0  0  0  0
   -1.6822   -2.9359   -0.2152 O   0  0  0  0  0  0  0  0  0  0  0  0
   -2.9660   -2.6770    1.8260 O   0  0  0  0  0  0  0  0  0  0  0  0
   -3.9266   -1.4883   -0.3293 C   0  0  0  0  0  0  0  0  0  0  0  0
   -4.9698   -0.8015    0.3074 C   0  0  0  0  0  0  0  0  0  0  0  0
   -6.1013   -0.4114   -0.4147 C   0  0  0  0  0  0  0  0  0  0  0  0
   -6.2045   -0.7098   -1.7804 C   0  0  0  0  0  0  0  0  0  0  0  0
   -5.1674   -1.4065   -2.4156 C   0  0  0  0  0  0  0  0  0  0  0  0
   -4.0363   -1.7978   -1.6933 C   0  0  0  0  0  0  0  0  0  0  0  0
   -7.3606   -0.3081   -2.5199 N   0  0  0  0  0  0  0  0  0  0  0  0
   -1.1864    0.5893    5.0190 H   0  0  0  0  0  0  0  0  0  0  0  0
   -2.4606   -0.6928    4.9926 H   0  0  0  0  0  0  0  0  0  0  0  0
   -0.8163   -1.0792    5.6068 H   0  0  0  0  0  0  0  0  0  0  0  0
   -1.1399   -1.9901    3.3292 H   0  0  0  0  0  0  0  0  0  0  0  0
    1.1274   -1.1989    4.0521 H   0  0  0  0  0  0  0  0  0  0  0  0
    0.8827   -1.0916    2.2819 H   0  0  0  0  0  0  0  0  0  0  0  0
    0.7987    0.4077    3.2904 H   0  0  0  0  0  0  0  0  0  0  0  0
   -1.5048    0.9592    2.5062 H   0  0  0  0  0  0  0  0  0  0  0  0
   -2.8479   -0.1944    2.5966 H   0  0  0  0  0  0  0  0  0  0  0  0
   -1.0585    1.4196    0.3938 H   0  0  0  0  0  0  0  0  0  0  0  0
   -2.6804    0.8348   -0.0145 H   0  0  0  0  0  0  0  0  0  0  0  0
   -1.3219   -0.8586   -1.6532 H   0  0  0  0  0  0  0  0  0  0  0  0
    0.6914    1.4418   -1.3355 H   0  0  0  0  0  0  0  0  0  0  0  0
    0.6471   -1.1019   -3.1071 H   0  0  0  0  0  0  0  0  0  0  0  0
    2.1043   -0.1155   -2.8442 H   0  0  0  0  0  0  0  0  0  0  0  0
   -0.8299   -0.4625   -4.8939 H   0  0  0  0  0  0  0  0  0  0  0  0
   -1.4581    1.1090   -6.6903 H   0  0  0  0  0  0  0  0  0  0  0  0
   -0.3964    3.3451   -6.8211 H   0  0  0  0  0  0  0  0  0  0  0  0
    1.3072    4.0097   -5.1474 H   0  0  0  0  0  0  0  0  0  0  0  0
    1.9529    2.4501   -3.3440 H   0  0  0  0  0  0  0  0  0  0  0  0
    0.8060   -1.3969   -0.2738 H   0  0  0  0  0  0  0  0  0  0  0  0
    5.1167   -0.3980    0.6654 H   0  0  0  0  0  0  0  0  0  0  0  0
    5.5270   -2.5211    1.5154 H   0  0  0  0  0  0  0  0  0  0  0  0
    4.0512   -2.5259    2.5559 H   0  0  0  0  0  0  0  0  0  0  0  0
    4.5060   -0.3729    4.5960 H   0  0  0  0  0  0  0  0  0  0  0  0
    3.2505    0.5247    2.8916 H   0  0  0  0  0  0  0  0  0  0  0  0
    4.4217    2.5055    2.7171 H   0  0  0  0  0  0  0  0  0  0  0  0
    5.0861    1.8699    1.1579 H   0  0  0  0  0  0  0  0  0  0  0  0
    7.0748    1.1150    2.1993 H   0  0  0  0  0  0  0  0  0  0  0  0
    6.6921    2.5153    3.2761 H   0  0  0  0  0  0  0  0  0  0  0  0
   -2.6108    0.6866   -2.4716 H   0  0  0  0  0  0  0  0  0  0  0  0
   -4.9058   -0.5632    1.3607 H   0  0  0  0  0  0  0  0  0  0  0  0
   -6.8966    0.1233    0.0893 H   0  0  0  0  0  0  0  0  0  0  0  0
   -5.2352   -1.6457   -3.4694 H   0  0  0  0  0  0  0  0  0  0  0  0
   -3.2469   -2.3344   -2.2027 H   0  0  0  0  0  0  0  0  0  0  0  0
   -7.4465   -0.5262   -3.5377 H   0  0  0  0  0  0  0  0  0  0  0  0
   -8.1388    0.2109   -2.0551 H   0  0  0  0  0  0  0  0  0  0  0  0
  1  2  1  0
  2  3  1  0
  2  4  1  0
  4  5  1  0
  5  6  1  0
  6  7  1  0
  7  8  1  0
  8  9  1  0
  9 10  1  0
 10 11  2  0
 11 12  1  0
 12 13  2  0
 13 14  1  0
 14 15  2  0
  8 16  1  0
 16 17  1  0
 17 18  2  0
 17 19  1  0
 19 20  1  0
 20 21  1  0
 21 22  1  0
 22 23  1  0
 23 24  1  0
 24 25  1  0
 25 26  1  0
 26 27  1  0
  7 28  1  0
  5 29  1  0
 29 30  2  0
 29 31  2  0
 29 32  1  0
 32 33  2  0
 33 34  1  0
 34 35  2  0
 35 36  1  0
 36 37  2  0
 35 38  1  0
 15 10  1  0
 24 20  1  0
 27 23  1  0
 37 32  1  0
  1 39  1  0
  1 40  1  0
  1 41  1  0
  2 42  1  0
  3 43  1  0
  3 44  1  0
  3 45  1  0
  4 46  1  0
  4 47  1  0
  6 48  1  0
  6 49  1  0
  7 50  1  0
  8 51  1  0
  9 52  1  0
  9 53  1  0
 11 54  1  0
 12 55  1  0
 13 56  1  0
 14 57  1  0
 15 58  1  0
 16 59  1  0
 20 60  1  0
 21 61  1  0
 21 62  1  0
 23 63  1  0
 24 64  1  0
 25 65  1  0
 25 66  1  0
 26 67  1  0
 26 68  1  0
 28 69  1  0
 33 70  1  0
 34 71  1  0
 36 72  1  0
 37 73  1  0
 38 74  1  0
 38 75  1  0
M  END
>  <LIG_ID>  (275) 
274

>  <_smiles>  (275) 
CC(C)CN(CC(C(CC1=CC=CC=C1)NC(=O)OC2COC3C2CCO3)O)S(=O)(=O)C4=CC=C(C=C4)N

>  <_name>  (275) 
Darunavir

>  <_molecular_weight>  (275) 
547.7

>  <_formula>  (275) 
C27H37N3O7S

>  <_logP>  (275) 
2.3752999999999997

>  <_molecular_wt_calculated>  (275) 
547.6740000000017

>  <_havy_atom_count>  (275) 
38

>  <_hydrogen_acceptors>  (275) 
8

>  <_hydrogen_donors>  (275) 
3

>  <_rotatable_bonds>  (275) 
15

>  <_amide_bonds>  (275) 
1

>  <_ring_count>  (275) 
4

$$$$
Tipranavir
     RDKit          3D

 75 78  0  0  0  0  0  0  0  0999 V2000
   -4.1582   -2.1391   -1.2267 C   0  0  0  0  0  0  0  0  0  0  0  0
   -3.8797   -2.0195    0.2723 C   0  0  0  0  0  0  0  0  0  0  0  0
   -4.4863   -0.7459    0.8968 C   0  0  0  0  0  0  0  0  0  0  0  0
   -3.6368    0.5736    0.8364 C   0  0  0  0  0  0  0  0  0  0  0  0
   -2.5153    0.5572    1.9226 C   0  0  0  0  0  0  0  0  0  0  0  0
   -1.2962   -0.2431    1.5307 C   0  0  0  0  0  0  0  0  0  0  0  0
   -0.9005   -0.3192    0.2403 C   0  0  0  0  0  0  0  0  0  0  0  0
   -1.7509    0.3419   -0.7777 C   0  0  0  0  0  0  0  0  0  0  0  0
   -1.3215    0.5379   -1.9455 O   0  0  0  0  0  0  0  0  0  0  0  0
   -3.0457    0.7557   -0.4549 O   0  0  0  0  0  0  0  0  0  0  0  0
    0.3811   -1.0227   -0.2250 C   0  0  0  0  0  0  0  0  0  0  0  0
    0.6929   -2.3863    0.4658 C   0  0  0  0  0  0  0  0  0  0  0  0
    1.8707   -2.3788    1.4500 C   0  0  0  0  0  0  0  0  0  0  0  0
    1.5703   -0.0743   -0.2982 C   0  0  0  0  0  0  0  0  0  0  0  0
    2.4855   -0.1944   -1.3603 C   0  0  0  0  0  0  0  0  0  0  0  0
    3.6231    0.6245   -1.4331 C   0  0  0  0  0  0  0  0  0  0  0  0
    3.8388    1.5837   -0.4278 C   0  0  0  0  0  0  0  0  0  0  0  0
    2.9441    1.7022    0.6364 C   0  0  0  0  0  0  0  0  0  0  0  0
    1.8221    0.8760    0.7088 C   0  0  0  0  0  0  0  0  0  0  0  0
    4.5375    0.4579   -2.5315 N   0  0  0  0  0  0  0  0  0  0  0  0
    6.1467    1.1079   -2.5541 S   0  0  0  0  0  6  0  0  0  0  0  0
    6.8876    0.5507   -3.7365 O   0  0  0  0  0  0  0  0  0  0  0  0
    6.0740    2.6043   -2.6762 O   0  0  0  0  0  0  0  0  0  0  0  0
    6.9945    0.6478   -1.0861 C   0  0  0  0  0  0  0  0  0  0  0  0
    6.6072   -0.4654   -0.4085 N   0  0  0  0  0  0  0  0  0  0  0  0
    7.2212   -0.8590    0.7385 C   0  0  0  0  0  0  0  0  0  0  0  0
    8.3005   -0.1220    1.2532 C   0  0  0  0  0  0  0  0  0  0  0  0
    8.6956    1.0433    0.5767 C   0  0  0  0  0  0  0  0  0  0  0  0
    8.0500    1.4249   -0.6006 C   0  0  0  0  0  0  0  0  0  0  0  0
    8.9526   -0.5171    2.5534 C   0  0  0  0  0  0  0  0  0  0  0  0
    8.9094   -1.8901    2.7235 F   0  0  0  0  0  0  0  0  0  0  0  0
   10.2782   -0.1194    2.5752 F   0  0  0  0  0  0  0  0  0  0  0  0
    8.2832    0.0880    3.6005 F   0  0  0  0  0  0  0  0  0  0  0  0
   -0.5465   -0.8315    2.5454 O   0  0  0  0  0  0  0  0  0  0  0  0
   -4.5849    1.7896    1.1258 C   0  0  0  0  0  0  0  0  0  0  0  0
   -5.2362    2.4457   -0.1122 C   0  0  0  0  0  0  0  0  0  0  0  0
   -6.2158    1.5491   -0.8215 C   0  0  0  0  0  0  0  0  0  0  0  0
   -7.4772    1.2948   -0.2568 C   0  0  0  0  0  0  0  0  0  0  0  0
   -8.3774    0.4401   -0.9003 C   0  0  0  0  0  0  0  0  0  0  0  0
   -8.0272   -0.1632   -2.1112 C   0  0  0  0  0  0  0  0  0  0  0  0
   -6.7771    0.0892   -2.6822 C   0  0  0  0  0  0  0  0  0  0  0  0
   -5.8730    0.9418   -2.0417 C   0  0  0  0  0  0  0  0  0  0  0  0
   -5.2526   -2.1845   -1.4106 H   0  0  0  0  0  0  0  0  0  0  0  0
   -3.7001   -3.0736   -1.6132 H   0  0  0  0  0  0  0  0  0  0  0  0
   -3.7341   -1.2861   -1.7900 H   0  0  0  0  0  0  0  0  0  0  0  0
   -2.7981   -2.1098    0.4686 H   0  0  0  0  0  0  0  0  0  0  0  0
   -4.3516   -2.8991    0.7621 H   0  0  0  0  0  0  0  0  0  0  0  0
   -5.4823   -0.5937    0.4392 H   0  0  0  0  0  0  0  0  0  0  0  0
   -4.7083   -0.9682    1.9637 H   0  0  0  0  0  0  0  0  0  0  0  0
   -2.1416    1.5870    2.1084 H   0  0  0  0  0  0  0  0  0  0  0  0
   -2.9213    0.1863    2.8884 H   0  0  0  0  0  0  0  0  0  0  0  0
    0.1626   -1.3203   -1.2757 H   0  0  0  0  0  0  0  0  0  0  0  0
   -0.2124   -2.7842    0.9720 H   0  0  0  0  0  0  0  0  0  0  0  0
    0.9427   -3.1349   -0.3192 H   0  0  0  0  0  0  0  0  0  0  0  0
    1.7621   -1.5887    2.2182 H   0  0  0  0  0  0  0  0  0  0  0  0
    2.8256   -2.2196    0.9054 H   0  0  0  0  0  0  0  0  0  0  0  0
    1.9279   -3.3615    1.9636 H   0  0  0  0  0  0  0  0  0  0  0  0
    2.3215   -0.9413   -2.1278 H   0  0  0  0  0  0  0  0  0  0  0  0
    4.6938    2.2434   -0.4551 H   0  0  0  0  0  0  0  0  0  0  0  0
    3.1240    2.4354    1.4122 H   0  0  0  0  0  0  0  0  0  0  0  0
    1.1589    0.9808    1.5551 H   0  0  0  0  0  0  0  0  0  0  0  0
    4.2712   -0.1706   -3.3222 H   0  0  0  0  0  0  0  0  0  0  0  0
    6.8633   -1.7439    1.2484 H   0  0  0  0  0  0  0  0  0  0  0  0
    9.5002    1.6587    0.9592 H   0  0  0  0  0  0  0  0  0  0  0  0
    8.3642    2.3197   -1.1226 H   0  0  0  0  0  0  0  0  0  0  0  0
   -0.8134   -0.7499    3.5190 H   0  0  0  0  0  0  0  0  0  0  0  0
   -5.3752    1.5023    1.8544 H   0  0  0  0  0  0  0  0  0  0  0  0
   -4.0188    2.6085    1.6199 H   0  0  0  0  0  0  0  0  0  0  0  0
   -5.7793    3.3571    0.2212 H   0  0  0  0  0  0  0  0  0  0  0  0
   -4.4498    2.8032   -0.8119 H   0  0  0  0  0  0  0  0  0  0  0  0
   -7.7578    1.7514    0.6842 H   0  0  0  0  0  0  0  0  0  0  0  0
   -9.3459    0.2437   -0.4589 H   0  0  0  0  0  0  0  0  0  0  0  0
   -8.7244   -0.8261   -2.6070 H   0  0  0  0  0  0  0  0  0  0  0  0
   -6.5059   -0.3804   -3.6189 H   0  0  0  0  0  0  0  0  0  0  0  0
   -4.9057    1.1218   -2.4937 H   0  0  0  0  0  0  0  0  0  0  0  0
  1  2  1  0
  2  3  1  0
  3  4  1  0
  4  5  1  0
  5  6  1  0
  6  7  2  0
  7  8  1  0
  8  9  2  0
  8 10  1  0
  7 11  1  0
 11 12  1  0
 12 13  1  0
 11 14  1  0
 14 15  2  0
 15 16  1  0
 16 17  2  0
 17 18  1  0
 18 19  2  0
 16 20  1  0
 20 21  1  0
 21 22  2  0
 21 23  2  0
 21 24  1  0
 24 25  2  0
 25 26  1  0
 26 27  2  0
 27 28  1  0
 28 29  2  0
 27 30  1  0
 30 31  1  0
 30 32  1  0
 30 33  1  0
  6 34  1  0
  4 35  1  0
 35 36  1  0
 36 37  1  0
 37 38  2  0
 38 39  1  0
 39 40  2  0
 40 41  1  0
 41 42  2  0
 10  4  1  0
 19 14  1  0
 29 24  1  0
 42 37  1  0
  1 43  1  0
  1 44  1  0
  1 45  1  0
  2 46  1  0
  2 47  1  0
  3 48  1  0
  3 49  1  0
  5 50  1  0
  5 51  1  0
 11 52  1  0
 12 53  1  0
 12 54  1  0
 13 55  1  0
 13 56  1  0
 13 57  1  0
 15 58  1  0
 17 59  1  0
 18 60  1  0
 19 61  1  0
 20 62  1  0
 26 63  1  0
 28 64  1  0
 29 65  1  0
 34 66  1  0
 35 67  1  0
 35 68  1  0
 36 69  1  0
 36 70  1  0
 38 71  1  0
 39 72  1  0
 40 73  1  0
 41 74  1  0
 42 75  1  0
M  END
>  <LIG_ID>  (276) 
275

>  <_smiles>  (276) 
CCCC1(CC(=C(C(=O)O1)C(CC)C2=CC(=CC=C2)NS(=O)(=O)C3=NC=C(C=C3)C(F)(F)F)O)CCC4=CC=CC=C4

>  <_name>  (276) 
Tipranavir

>  <_molecular_weight>  (276) 
602.7

>  <_formula>  (276) 
C31H33F3N2O5S

>  <_logP>  (276) 
7.325500000000007

>  <_molecular_wt_calculated>  (276) 
602.6750000000013

>  <_havy_atom_count>  (276) 
42

>  <_hydrogen_acceptors>  (276) 
6

>  <_hydrogen_donors>  (276) 
2

>  <_rotatable_bonds>  (276) 
14

>  <_amide_bonds>  (276) 
0

>  <_ring_count>  (276) 
4

$$$$
Amprenavir
     RDKit          3D

 70 72  0  0  0  0  0  0  0  0999 V2000
   -2.2581    3.9256   -1.0138 C   0  0  0  0  0  0  0  0  0  0  0  0
   -3.4359    2.9443   -1.0544 C   0  0  0  0  0  0  0  0  0  0  0  0
   -4.4341    3.2480    0.0700 C   0  0  0  0  0  0  0  0  0  0  0  0
   -2.9607    1.4789   -1.0083 C   0  0  0  0  0  0  0  0  0  0  0  0
   -2.2500    1.1913    0.2633 N   0  0  0  0  0  0  0  0  0  0  0  0
   -0.8219    0.8887    0.0184 C   0  0  0  0  0  0  0  0  0  0  0  0
    0.0315    1.0277    1.3000 C   0  0  0  0  0  0  0  0  0  0  0  0
    1.5276    0.6968    1.0326 C   0  0  0  0  0  0  0  0  0  0  0  0
    2.3982    0.8280    2.3037 C   0  0  0  0  0  0  0  0  0  0  0  0
    2.6573    2.2607    2.6997 C   0  0  0  0  0  0  0  0  0  0  0  0
    2.0650    2.8005    3.8547 C   0  0  0  0  0  0  0  0  0  0  0  0
    2.3020    4.1315    4.2118 C   0  0  0  0  0  0  0  0  0  0  0  0
    3.1340    4.9310    3.4236 C   0  0  0  0  0  0  0  0  0  0  0  0
    3.7323    4.4004    2.2776 C   0  0  0  0  0  0  0  0  0  0  0  0
    3.4978    3.0702    1.9164 C   0  0  0  0  0  0  0  0  0  0  0  0
    1.6390   -0.6830    0.5435 N   0  0  0  0  0  0  0  0  0  0  0  0
    1.8428   -1.0169   -0.8343 C   0  0  0  0  0  0  0  0  0  0  0  0
    2.1382   -0.1215   -1.6728 O   0  0  0  0  0  0  0  0  0  0  0  0
    1.6877   -2.3456   -1.2412 O   0  0  0  0  0  0  0  0  0  0  0  0
    1.8338   -2.7677   -2.5966 C   0  0  0  0  0  0  0  0  0  0  0  0
    3.2719   -2.7939   -3.0218 C   0  0  0  0  0  0  0  0  0  0  0  0
    3.3174   -3.9637   -3.9842 C   0  0  0  0  0  0  0  0  0  0  0  0
    2.2296   -4.8252   -3.7326 O   0  0  0  0  0  0  0  0  0  0  0  0
    1.4143   -4.2141   -2.7594 C   0  0  0  0  0  0  0  0  0  0  0  0
   -0.1256    2.3187    1.8330 O   0  0  0  0  0  0  0  0  0  0  0  0
   -3.0398   -0.1049    1.1526 S   0  0  0  0  0  6  0  0  0  0  0  0
   -4.5348    0.0091    1.0317 O   0  0  0  0  0  0  0  0  0  0  0  0
   -2.7011    0.0158    2.6121 O   0  0  0  0  0  0  0  0  0  0  0  0
   -2.5420   -1.6926    0.5604 C   0  0  0  0  0  0  0  0  0  0  0  0
   -3.0880   -2.2018   -0.6257 C   0  0  0  0  0  0  0  0  0  0  0  0
   -2.6641   -3.4382   -1.1223 C   0  0  0  0  0  0  0  0  0  0  0  0
   -1.6881   -4.1766   -0.4387 C   0  0  0  0  0  0  0  0  0  0  0  0
   -1.1368   -3.6647    0.7438 C   0  0  0  0  0  0  0  0  0  0  0  0
   -1.5630   -2.4303    1.2422 C   0  0  0  0  0  0  0  0  0  0  0  0
   -1.2607   -5.4448   -0.9419 N   0  0  0  0  0  0  0  0  0  0  0  0
   -2.6238    4.9641   -1.1607 H   0  0  0  0  0  0  0  0  0  0  0  0
   -1.5373    3.6952   -1.8269 H   0  0  0  0  0  0  0  0  0  0  0  0
   -1.7324    3.8723   -0.0376 H   0  0  0  0  0  0  0  0  0  0  0  0
   -3.9638    3.0951   -2.0223 H   0  0  0  0  0  0  0  0  0  0  0  0
   -4.8141    4.2872   -0.0280 H   0  0  0  0  0  0  0  0  0  0  0  0
   -3.9551    3.1375    1.0664 H   0  0  0  0  0  0  0  0  0  0  0  0
   -5.3016    2.5571    0.0083 H   0  0  0  0  0  0  0  0  0  0  0  0
   -3.8454    0.8255   -1.1593 H   0  0  0  0  0  0  0  0  0  0  0  0
   -2.3245    1.2817   -1.9018 H   0  0  0  0  0  0  0  0  0  0  0  0
   -0.7142   -0.1202   -0.4286 H   0  0  0  0  0  0  0  0  0  0  0  0
   -0.4049    1.6058   -0.7242 H   0  0  0  0  0  0  0  0  0  0  0  0
   -0.3274    0.3032    2.0560 H   0  0  0  0  0  0  0  0  0  0  0  0
    1.9201    1.3992    0.2646 H   0  0  0  0  0  0  0  0  0  0  0  0
    3.3832    0.3457    2.1175 H   0  0  0  0  0  0  0  0  0  0  0  0
    1.9274    0.2661    3.1405 H   0  0  0  0  0  0  0  0  0  0  0  0
    1.4141    2.1950    4.4731 H   0  0  0  0  0  0  0  0  0  0  0  0
    1.8396    4.5435    5.0995 H   0  0  0  0  0  0  0  0  0  0  0  0
    3.3160    5.9611    3.7014 H   0  0  0  0  0  0  0  0  0  0  0  0
    4.3783    5.0199    1.6691 H   0  0  0  0  0  0  0  0  0  0  0  0
    3.9696    2.6709    1.0271 H   0  0  0  0  0  0  0  0  0  0  0  0
    1.4125   -1.4630    1.2018 H   0  0  0  0  0  0  0  0  0  0  0  0
    1.2327   -2.1236   -3.2785 H   0  0  0  0  0  0  0  0  0  0  0  0
    3.5735   -1.8434   -3.5132 H   0  0  0  0  0  0  0  0  0  0  0  0
    3.9339   -2.9967   -2.1503 H   0  0  0  0  0  0  0  0  0  0  0  0
    3.2459   -3.5943   -5.0302 H   0  0  0  0  0  0  0  0  0  0  0  0
    4.2712   -4.5221   -3.8715 H   0  0  0  0  0  0  0  0  0  0  0  0
    1.5326   -4.7650   -1.8004 H   0  0  0  0  0  0  0  0  0  0  0  0
    0.3502   -4.2733   -3.0726 H   0  0  0  0  0  0  0  0  0  0  0  0
    0.2556    2.9608    1.1783 H   0  0  0  0  0  0  0  0  0  0  0  0
   -3.8380   -1.6418   -1.1684 H   0  0  0  0  0  0  0  0  0  0  0  0
   -3.0950   -3.8200   -2.0392 H   0  0  0  0  0  0  0  0  0  0  0  0
   -0.3775   -4.2215    1.2783 H   0  0  0  0  0  0  0  0  0  0  0  0
   -1.1216   -2.0493    2.1535 H   0  0  0  0  0  0  0  0  0  0  0  0
   -0.5332   -6.0014   -0.4402 H   0  0  0  0  0  0  0  0  0  0  0  0
   -1.6624   -5.8327   -1.8245 H   0  0  0  0  0  0  0  0  0  0  0  0
  1  2  1  0
  2  3  1  0
  2  4  1  0
  4  5  1  0
  5  6  1  0
  6  7  1  0
  7  8  1  0
  8  9  1  0
  9 10  1  0
 10 11  2  0
 11 12  1  0
 12 13  2  0
 13 14  1  0
 14 15  2  0
  8 16  1  0
 16 17  1  0
 17 18  2  0
 17 19  1  0
 19 20  1  0
 20 21  1  0
 21 22  1  0
 22 23  1  0
 23 24  1  0
  7 25  1  0
  5 26  1  0
 26 27  2  0
 26 28  2  0
 26 29  1  0
 29 30  2  0
 30 31  1  0
 31 32  2  0
 32 33  1  0
 33 34  2  0
 32 35  1  0
 15 10  1  0
 24 20  1  0
 34 29  1  0
  1 36  1  0
  1 37  1  0
  1 38  1  0
  2 39  1  0
  3 40  1  0
  3 41  1  0
  3 42  1  0
  4 43  1  0
  4 44  1  0
  6 45  1  0
  6 46  1  0
  7 47  1  0
  8 48  1  0
  9 49  1  0
  9 50  1  0
 11 51  1  0
 12 52  1  0
 13 53  1  0
 14 54  1  0
 15 55  1  0
 16 56  1  0
 20 57  1  0
 21 58  1  0
 21 59  1  0
 22 60  1  0
 22 61  1  0
 24 62  1  0
 24 63  1  0
 25 64  1  0
 30 65  1  0
 31 66  1  0
 33 67  1  0
 34 68  1  0
 35 69  1  0
 35 70  1  0
M  END
>  <LIG_ID>  (277) 
276

>  <_smiles>  (277) 
CC(C)CN(CC(C(CC1=CC=CC=C1)NC(=O)OC2CCOC2)O)S(=O)(=O)C3=CC=C(C=C3)N

>  <_name>  (277) 
Amprenavir

>  <_molecular_weight>  (277) 
505.6

>  <_formula>  (277) 
C25H35N3O6S

>  <_logP>  (277) 
2.4028

>  <_molecular_wt_calculated>  (277) 
505.6369999999996

>  <_havy_atom_count>  (277) 
35

>  <_hydrogen_acceptors>  (277) 
7

>  <_hydrogen_donors>  (277) 
3

>  <_rotatable_bonds>  (277) 
15

>  <_amide_bonds>  (277) 
1

>  <_ring_count>  (277) 
3

$$$$
Fosamprenavir
     RDKit          3D

 75 77  0  0  0  0  0  0  0  0999 V2000
   -2.1056   -2.8118   -3.0747 C   0  0  0  0  0  0  0  0  0  0  0  0
   -2.5146   -2.2704   -1.6997 C   0  0  0  0  0  0  0  0  0  0  0  0
   -3.1151   -3.3961   -0.8464 C   0  0  0  0  0  0  0  0  0  0  0  0
   -1.3028   -1.6224   -1.0001 C   0  0  0  0  0  0  0  0  0  0  0  0
   -1.6757   -1.0385    0.3056 N   0  0  0  0  0  0  0  0  0  0  0  0
   -0.5731   -1.0286    1.2933 C   0  0  0  0  0  0  0  0  0  0  0  0
    0.7105   -0.2714    0.8453 C   0  0  0  0  0  0  0  0  0  0  0  0
    1.9004   -0.6138    1.7990 C   0  0  0  0  0  0  0  0  0  0  0  0
    1.7553   -0.1149    3.2669 C   0  0  0  0  0  0  0  0  0  0  0  0
    1.5943    1.3803    3.4447 C   0  0  0  0  0  0  0  0  0  0  0  0
    2.7189    2.2205    3.5363 C   0  0  0  0  0  0  0  0  0  0  0  0
    2.5603    3.6014    3.6879 C   0  0  0  0  0  0  0  0  0  0  0  0
    1.2810    4.1549    3.7727 C   0  0  0  0  0  0  0  0  0  0  0  0
    0.1580    3.3264    3.7245 C   0  0  0  0  0  0  0  0  0  0  0  0
    0.3123    1.9453    3.5749 C   0  0  0  0  0  0  0  0  0  0  0  0
    3.1787   -0.1961    1.2117 N   0  0  0  0  0  0  0  0  0  0  0  0
    3.7477   -0.8382    0.0643 C   0  0  0  0  0  0  0  0  0  0  0  0
    3.2526   -1.9111   -0.3792 O   0  0  0  0  0  0  0  0  0  0  0  0
    4.8555   -0.2573   -0.5607 O   0  0  0  0  0  0  0  0  0  0  0  0
    5.4387   -0.7711   -1.7594 C   0  0  0  0  0  0  0  0  0  0  0  0
    4.5805   -0.4556   -2.9513 C   0  0  0  0  0  0  0  0  0  0  0  0
    5.0999    0.8957   -3.3999 C   0  0  0  0  0  0  0  0  0  0  0  0
    6.4027    1.0905   -2.8964 O   0  0  0  0  0  0  0  0  0  0  0  0
    6.7114   -0.0098   -2.0718 C   0  0  0  0  0  0  0  0  0  0  0  0
    0.4506    1.1206    0.8270 O   0  0  0  0  0  0  0  0  0  0  0  0
    1.1941    1.9038   -0.5025 P   0  0  0  0  0  5  0  0  0  0  0  0
    0.4402    3.1857   -0.7740 O   0  0  0  0  0  0  0  0  0  0  0  0
    1.1548    0.9498   -1.9025 O   0  0  0  0  0  0  0  0  0  0  0  0
    2.7949    2.2968   -0.1219 O   0  0  0  0  0  0  0  0  0  0  0  0
   -2.5101    0.4995    0.1670 S   0  0  0  0  0  6  0  0  0  0  0  0
   -2.2916    1.3477    1.3889 O   0  0  0  0  0  0  0  0  0  0  0  0
   -2.0268    1.2550   -1.0401 O   0  0  0  0  0  0  0  0  0  0  0  0
   -4.2386    0.1966    0.0298 C   0  0  0  0  0  0  0  0  0  0  0  0
   -4.9798    0.7230   -1.0379 C   0  0  0  0  0  0  0  0  0  0  0  0
   -6.3485    0.4566   -1.1414 C   0  0  0  0  0  0  0  0  0  0  0  0
   -6.9887   -0.3356   -0.1778 C   0  0  0  0  0  0  0  0  0  0  0  0
   -6.2474   -0.8568    0.8920 C   0  0  0  0  0  0  0  0  0  0  0  0
   -4.8793   -0.5896    0.9958 C   0  0  0  0  0  0  0  0  0  0  0  0
   -8.3879   -0.6099   -0.2854 N   0  0  0  0  0  0  0  0  0  0  0  0
   -2.9865   -3.2472   -3.5932 H   0  0  0  0  0  0  0  0  0  0  0  0
   -1.3254   -3.5967   -2.9725 H   0  0  0  0  0  0  0  0  0  0  0  0
   -1.7066   -1.9897   -3.7067 H   0  0  0  0  0  0  0  0  0  0  0  0
   -3.2955   -1.5013   -1.8693 H   0  0  0  0  0  0  0  0  0  0  0  0
   -2.3631   -4.1938   -0.6648 H   0  0  0  0  0  0  0  0  0  0  0  0
   -3.9928   -3.8404   -1.3622 H   0  0  0  0  0  0  0  0  0  0  0  0
   -3.4600   -3.0021    0.1320 H   0  0  0  0  0  0  0  0  0  0  0  0
   -0.5306   -2.4131   -0.8608 H   0  0  0  0  0  0  0  0  0  0  0  0
   -0.8574   -0.8495   -1.6616 H   0  0  0  0  0  0  0  0  0  0  0  0
   -0.3130   -2.0870    1.5140 H   0  0  0  0  0  0  0  0  0  0  0  0
   -0.9462   -0.6185    2.2532 H   0  0  0  0  0  0  0  0  0  0  0  0
    0.9773   -0.6743   -0.1509 H   0  0  0  0  0  0  0  0  0  0  0  0
    1.9436   -1.7232    1.8825 H   0  0  0  0  0  0  0  0  0  0  0  0
    0.8985   -0.6367    3.7449 H   0  0  0  0  0  0  0  0  0  0  0  0
    2.6500   -0.4468    3.8382 H   0  0  0  0  0  0  0  0  0  0  0  0
    3.7196    1.8107    3.5112 H   0  0  0  0  0  0  0  0  0  0  0  0
    3.4308    4.2418    3.7483 H   0  0  0  0  0  0  0  0  0  0  0  0
    1.1603    5.2240    3.8905 H   0  0  0  0  0  0  0  0  0  0  0  0
   -0.8330    3.7536    3.8071 H   0  0  0  0  0  0  0  0  0  0  0  0
   -0.5689    1.3191    3.5548 H   0  0  0  0  0  0  0  0  0  0  0  0
    3.7279    0.5798    1.6360 H   0  0  0  0  0  0  0  0  0  0  0  0
    5.6370   -1.8619   -1.6603 H   0  0  0  0  0  0  0  0  0  0  0  0
    3.4971   -0.4214   -2.7081 H   0  0  0  0  0  0  0  0  0  0  0  0
    4.7553   -1.2109   -3.7495 H   0  0  0  0  0  0  0  0  0  0  0  0
    4.4412    1.7007   -3.0083 H   0  0  0  0  0  0  0  0  0  0  0  0
    5.1131    0.9583   -4.5089 H   0  0  0  0  0  0  0  0  0  0  0  0
    7.4232   -0.6721   -2.6116 H   0  0  0  0  0  0  0  0  0  0  0  0
    7.2037    0.3442   -1.1406 H   0  0  0  0  0  0  0  0  0  0  0  0
    1.6128    1.4918   -2.5933 H   0  0  0  0  0  0  0  0  0  0  0  0
    3.1594    2.7091   -0.9450 H   0  0  0  0  0  0  0  0  0  0  0  0
   -4.5022    1.3330   -1.7933 H   0  0  0  0  0  0  0  0  0  0  0  0
   -6.9093    0.8656   -1.9724 H   0  0  0  0  0  0  0  0  0  0  0  0
   -6.7289   -1.4700    1.6432 H   0  0  0  0  0  0  0  0  0  0  0  0
   -4.3170   -1.0011    1.8247 H   0  0  0  0  0  0  0  0  0  0  0  0
   -8.8735   -1.1991    0.4273 H   0  0  0  0  0  0  0  0  0  0  0  0
   -8.9484   -0.2263   -1.0788 H   0  0  0  0  0  0  0  0  0  0  0  0
  1  2  1  0
  2  3  1  0
  2  4  1  0
  4  5  1  0
  5  6  1  0
  6  7  1  0
  7  8  1  0
  8  9  1  0
  9 10  1  0
 10 11  2  0
 11 12  1  0
 12 13  2  0
 13 14  1  0
 14 15  2  0
  8 16  1  0
 16 17  1  0
 17 18  2  0
 17 19  1  0
 19 20  1  0
 20 21  1  0
 21 22  1  0
 22 23  1  0
 23 24  1  0
  7 25  1  0
 25 26  1  0
 26 27  2  0
 26 28  1  0
 26 29  1  0
  5 30  1  0
 30 31  2  0
 30 32  2  0
 30 33  1  0
 33 34  2  0
 34 35  1  0
 35 36  2  0
 36 37  1  0
 37 38  2  0
 36 39  1  0
 15 10  1  0
 24 20  1  0
 38 33  1  0
  1 40  1  0
  1 41  1  0
  1 42  1  0
  2 43  1  0
  3 44  1  0
  3 45  1  0
  3 46  1  0
  4 47  1  0
  4 48  1  0
  6 49  1  0
  6 50  1  0
  7 51  1  0
  8 52  1  0
  9 53  1  0
  9 54  1  0
 11 55  1  0
 12 56  1  0
 13 57  1  0
 14 58  1  0
 15 59  1  0
 16 60  1  0
 20 61  1  0
 21 62  1  0
 21 63  1  0
 22 64  1  0
 22 65  1  0
 24 66  1  0
 24 67  1  0
 28 68  1  0
 29 69  1  0
 34 70  1  0
 35 71  1  0
 37 72  1  0
 38 73  1  0
 39 74  1  0
 39 75  1  0
M  END
>  <LIG_ID>  (278) 
277

>  <_smiles>  (278) 
CC(C)CN(CC(C(CC1=CC=CC=C1)NC(=O)OC2CCOC2)OP(=O)(O)O)S(=O)(=O)C3=CC=C(C=C3)N

>  <_name>  (278) 
Fosamprenavir

>  <_molecular_weight>  (278) 
585.6

>  <_formula>  (278) 
C25H36N3O9PS

>  <_logP>  (278) 
2.5198

>  <_molecular_wt_calculated>  (278) 
585.6160000000016

>  <_havy_atom_count>  (278) 
39

>  <_hydrogen_acceptors>  (278) 
10

>  <_hydrogen_donors>  (278) 
4

>  <_rotatable_bonds>  (278) 
18

>  <_amide_bonds>  (278) 
1

>  <_ring_count>  (278) 
3

$$$$
Cinanserine
     RDKit          3D

 48 49  0  0  0  0  0  0  0  0999 V2000
   -4.3608    2.4491   -1.4439 C   0  0  0  0  0  0  0  0  0  0  0  0
   -3.3431    1.3862   -1.4874 N   0  0  0  0  0  0  0  0  0  0  0  0
   -3.4980    0.6118   -2.7314 C   0  0  0  0  0  0  0  0  0  0  0  0
   -3.4723    0.5160   -0.2975 C   0  0  0  0  0  0  0  0  0  0  0  0
   -2.2137   -0.3529   -0.0890 C   0  0  0  0  0  0  0  0  0  0  0  0
   -2.4809   -1.8343   -0.3776 C   0  0  0  0  0  0  0  0  0  0  0  0
   -0.9409   -2.8209   -0.3144 S   0  0  0  0  0  0  0  0  0  0  0  0
   -0.8301   -2.8676    1.4834 C   0  0  0  0  0  0  0  0  0  0  0  0
   -1.6374   -3.7727    2.1861 C   0  0  0  0  0  0  0  0  0  0  0  0
   -1.5726   -3.8426    3.5790 C   0  0  0  0  0  0  0  0  0  0  0  0
   -0.6954   -3.0139    4.2796 C   0  0  0  0  0  0  0  0  0  0  0  0
    0.1314   -2.1251    3.5882 C   0  0  0  0  0  0  0  0  0  0  0  0
    0.0910   -2.0582    2.1836 C   0  0  0  0  0  0  0  0  0  0  0  0
    0.9561   -1.1550    1.4724 N   0  0  0  0  0  0  0  0  0  0  0  0
    2.3569   -1.0008    1.7710 C   0  0  0  0  0  0  0  0  0  0  0  0
    2.8842   -1.6810    2.6917 O   0  0  0  0  0  0  0  0  0  0  0  0
    3.2133   -0.0490    1.0335 C   0  0  0  0  0  0  0  0  0  0  0  0
    2.9357    0.3896   -0.2031 C   0  0  0  0  0  0  0  0  0  0  0  0
    3.8035    1.3337   -0.9490 C   0  0  0  0  0  0  0  0  0  0  0  0
    4.6887    2.2203   -0.3012 C   0  0  0  0  0  0  0  0  0  0  0  0
    5.4766    3.1026   -1.0474 C   0  0  0  0  0  0  0  0  0  0  0  0
    5.3854    3.1186   -2.4407 C   0  0  0  0  0  0  0  0  0  0  0  0
    4.5003    2.2570   -3.0917 C   0  0  0  0  0  0  0  0  0  0  0  0
    3.7095    1.3732   -2.3512 C   0  0  0  0  0  0  0  0  0  0  0  0
   -4.2596    3.1169   -2.3267 H   0  0  0  0  0  0  0  0  0  0  0  0
   -5.3888    2.0224   -1.4264 H   0  0  0  0  0  0  0  0  0  0  0  0
   -4.2151    3.0832   -0.5430 H   0  0  0  0  0  0  0  0  0  0  0  0
   -3.4622    1.2861   -3.6144 H   0  0  0  0  0  0  0  0  0  0  0  0
   -2.6555   -0.1001   -2.8486 H   0  0  0  0  0  0  0  0  0  0  0  0
   -4.4601    0.0526   -2.7458 H   0  0  0  0  0  0  0  0  0  0  0  0
   -3.5824    1.1483    0.6129 H   0  0  0  0  0  0  0  0  0  0  0  0
   -4.3967   -0.1044   -0.3539 H   0  0  0  0  0  0  0  0  0  0  0  0
   -1.3808    0.0117   -0.7290 H   0  0  0  0  0  0  0  0  0  0  0  0
   -1.8851   -0.2561    0.9683 H   0  0  0  0  0  0  0  0  0  0  0  0
   -3.2235   -2.2365    0.3445 H   0  0  0  0  0  0  0  0  0  0  0  0
   -2.9075   -1.9491   -1.3950 H   0  0  0  0  0  0  0  0  0  0  0  0
   -2.3249   -4.4168    1.6525 H   0  0  0  0  0  0  0  0  0  0  0  0
   -2.2072   -4.5357    4.1160 H   0  0  0  0  0  0  0  0  0  0  0  0
   -0.6556   -3.0601    5.3602 H   0  0  0  0  0  0  0  0  0  0  0  0
    0.7917   -1.4786    4.1514 H   0  0  0  0  0  0  0  0  0  0  0  0
    0.5431   -0.6187    0.6815 H   0  0  0  0  0  0  0  0  0  0  0  0
    4.1405    0.2375    1.5114 H   0  0  0  0  0  0  0  0  0  0  0  0
    2.0784   -0.0053   -0.7309 H   0  0  0  0  0  0  0  0  0  0  0  0
    4.7604    2.2557    0.7771 H   0  0  0  0  0  0  0  0  0  0  0  0
    6.1535    3.7805   -0.5435 H   0  0  0  0  0  0  0  0  0  0  0  0
    5.9955    3.8035   -3.0154 H   0  0  0  0  0  0  0  0  0  0  0  0
    4.4255    2.2744   -4.1714 H   0  0  0  0  0  0  0  0  0  0  0  0
    3.0286    0.7129   -2.8747 H   0  0  0  0  0  0  0  0  0  0  0  0
  1  2  1  0
  2  3  1  0
  2  4  1  0
  4  5  1  0
  5  6  1  0
  6  7  1  0
  7  8  1  0
  8  9  2  0
  9 10  1  0
 10 11  2  0
 11 12  1  0
 12 13  2  0
 13 14  1  0
 14 15  1  0
 15 16  2  0
 15 17  1  0
 17 18  2  3
 18 19  1  0
 19 20  2  0
 20 21  1  0
 21 22  2  0
 22 23  1  0
 23 24  2  0
 13  8  1  0
 24 19  1  0
  1 25  1  0
  1 26  1  0
  1 27  1  0
  3 28  1  0
  3 29  1  0
  3 30  1  0
  4 31  1  0
  4 32  1  0
  5 33  1  0
  5 34  1  0
  6 35  1  0
  6 36  1  0
  9 37  1  0
 10 38  1  0
 11 39  1  0
 12 40  1  0
 14 41  1  0
 17 42  1  0
 18 43  1  0
 20 44  1  0
 21 45  1  0
 22 46  1  0
 23 47  1  0
 24 48  1  0
M  END
>  <LIG_ID>  (279) 
278

>  <_smiles>  (279) 
CN(C)CCCSC1=CC=CC=C1NC(=O)C=CC2=CC=CC=C2

>  <_name>  (279) 
Cinanserine

>  <_molecular_weight>  (279) 
340.5

>  <_formula>  (279) 
C20H24N2OS

>  <_logP>  (279) 
4.382300000000003

>  <_molecular_wt_calculated>  (279) 
340.4919999999996

>  <_havy_atom_count>  (279) 
24

>  <_hydrogen_acceptors>  (279) 
3

>  <_hydrogen_donors>  (279) 
1

>  <_rotatable_bonds>  (279) 
10

>  <_amide_bonds>  (279) 
1

>  <_ring_count>  (279) 
2

$$$$
