REMARK VINA RESULT:      -9.1      2.080      8.360
REMARK  16 active torsions:
REMARK  status: ('A' for Active; 'I' for Inactive)
REMARK    1  A    between atoms: O_1  and  C_2 
REMARK    2  A    between atoms: C_3  and  C_4 
REMARK    3  A    between atoms: C_4  and  O_5 
REMARK    4  A    between atoms: O_5  and  C_6 
REMARK    5  A    between atoms: C_6  and  C_8 
REMARK    6  A    between atoms: C_9  and  C_10 
REMARK    7  A    between atoms: C_13  and  O_14 
REMARK    8  A    between atoms: C_18  and  O_19 
REMARK    9  A    between atoms: O_19  and  C_20 
REMARK   10  A    between atoms: C_23  and  O_24 
REMARK   11  A    between atoms: C_26  and  O_27 
REMARK   12  A    between atoms: C_31  and  C_32 
REMARK   13  A    between atoms: C_35  and  O_36 
REMARK   14  A    between atoms: C_37  and  O_38 
REMARK   15  A    between atoms: C_40  and  O_41 
REMARK   16  A    between atoms: C_42  and  O_43 
ROOT
ATOM      1  C   UNL d   1       9.706  -1.702  19.267  0.00  0.00     0.178 C 
ATOM      2  C   UNL d   1       8.249  -1.206  19.539  0.00  0.00     0.191 C 
ATOM      3  O   UNL d   1       7.834  -1.381  20.889  0.00  0.00    -0.330 OA
ATOM      4  C   UNL d   1       8.371  -2.538  21.499  0.00  0.00     0.340 C 
ATOM      5  C   UNL d   1       9.900  -2.416  21.707  0.00  0.00     0.214 C 
ATOM      6  C   UNL d   1      10.550  -1.597  20.560  0.00  0.00     0.180 C 
ENDROOT
BRANCH   4   7
ATOM      7  O   UNL d   1       7.711  -2.774  22.747  0.00  0.00    -0.452 OA
BRANCH   7   8
ATOM      8  C   UNL d   1       7.367  -1.806  23.714  0.00  0.00     0.229 A 
ATOM      9  C   UNL d   1       7.620  -0.434  23.539  0.00  0.00     0.076 A 
ATOM     10  C   UNL d   1       7.236   0.489  24.524  0.00  0.00     0.124 A 
ATOM     11  C   UNL d   1       7.408   1.892  24.385  0.00  0.00     0.137 A 
ATOM     12  C   UNL d   1       6.650  -0.022  25.703  0.00  0.00     0.371 A 
ATOM     13  C   UNL d   1       7.020   2.738  25.432  0.00  0.00     0.092 A 
ATOM     14  C   UNL d   1       6.450   2.220  26.600  0.00  0.00     0.129 A 
ATOM     15  C   UNL d   1       6.268   0.844  26.732  0.00  0.00     0.160 A 
ATOM     16  O   UNL d   1       6.445  -1.325  25.847  0.00  0.00    -0.200 OA
ATOM     17  C   UNL d   1       6.754  -2.220  24.913  0.00  0.00     0.405 A 
BRANCH  11  18
ATOM     18  O   UNL d   1       7.936   2.491  23.237  0.00  0.00    -0.506 OA
ATOM     19  H   UNL d   1       7.416   3.093  22.616  0.00  0.00     0.292 HD
ENDBRANCH  11  18
BRANCH  14  20
ATOM     20  O   UNL d   1       6.050   3.067  27.630  0.00  0.00    -0.506 OA
ATOM     21  H   UNL d   1       5.195   2.903  28.150  0.00  0.00     0.292 HD
ENDBRANCH  14  20
BRANCH  17  22
ATOM     22  C   UNL d   1       6.440  -3.641  25.183  0.00  0.00     0.086 A 
ATOM     23  C   UNL d   1       5.164  -4.137  24.872  0.00  0.00     0.021 A 
ATOM     24  C   UNL d   1       4.854  -5.480  25.099  0.00  0.00     0.050 A 
ATOM     25  C   UNL d   1       5.819  -6.350  25.624  0.00  0.00     0.158 A 
ATOM     26  C   UNL d   1       7.106  -5.867  25.916  0.00  0.00     0.159 A 
ATOM     27  C   UNL d   1       7.413  -4.521  25.689  0.00  0.00     0.066 A 
BRANCH  25  28
ATOM     28  O   UNL d   1       5.506  -7.689  25.851  0.00  0.00    -0.503 OA
ATOM     29  H   UNL d   1       6.220  -8.368  26.091  0.00  0.00     0.292 HD
ENDBRANCH  25  28
BRANCH  26  30
ATOM     30  O   UNL d   1       8.093  -6.711  26.426  0.00  0.00    -0.503 OA
ATOM     31  H   UNL d   1       7.939  -7.702  26.557  0.00  0.00     0.292 HD
ENDBRANCH  26  30
ENDBRANCH  17  22
ENDBRANCH   7   8
ENDBRANCH   4   7
BRANCH   5  32
ATOM     32  O   UNL d   1      10.443  -3.711  21.776  0.00  0.00    -0.383 OA
ATOM     33  H   UNL d   1       9.766  -4.332  21.398  0.00  0.00     0.210 HD
ENDBRANCH   5  32
BRANCH   2  34
ATOM     34  C   UNL d   1       8.066   0.285  19.205  0.00  0.00     0.267 C 
BRANCH  34  35
ATOM     35  O   UNL d   1       8.946   1.056  20.018  0.00  0.00    -0.459 OA
BRANCH  35  36
ATOM     36  C   UNL d   1       9.677   2.143  19.534  0.00  0.00     0.332 C 
ATOM     37  O   UNL d   1       9.400   2.651  18.415  0.00  0.00    -0.246 OA
BRANCH  36  38
ATOM     38  C   UNL d   1      10.812   2.666  20.311  0.00  0.00     0.092 C 
ATOM     39  C   UNL d   1      10.626   3.528  21.321  0.00  0.00     0.015 C 
BRANCH  39  40
ATOM     40  C   UNL d   1      11.705   4.011  22.217  0.00  0.00    -0.025 A 
ATOM     41  C   UNL d   1      11.837   5.396  22.419  0.00  0.00     0.011 A 
ATOM     42  C   UNL d   1      12.801   5.898  23.296  0.00  0.00     0.046 A 
ATOM     43  C   UNL d   1      13.640   5.027  23.993  0.00  0.00     0.117 A 
ATOM     44  C   UNL d   1      13.514   3.645  23.807  0.00  0.00     0.046 A 
ATOM     45  C   UNL d   1      12.551   3.137  22.929  0.00  0.00     0.011 A 
BRANCH  43  46
ATOM     46  O   UNL d   1      14.589   5.542  24.874  0.00  0.00    -0.507 OA
ATOM     47  H   UNL d   1      15.276   6.224  24.574  0.00  0.00     0.292 HD
ENDBRANCH  43  46
ENDBRANCH  39  40
ENDBRANCH  36  38
ENDBRANCH  35  36
ENDBRANCH  34  35
ENDBRANCH   2  34
BRANCH   6  48
ATOM     48  O   UNL d   1      11.888  -1.973  20.341  0.00  0.00    -0.386 OA
ATOM     49  H   UNL d   1      11.893  -2.712  19.679  0.00  0.00     0.210 HD
ENDBRANCH   6  48
BRANCH   1  50
ATOM     50  O   UNL d   1      10.304  -1.044  18.175  0.00  0.00    -0.386 OA
ATOM     51  H   UNL d   1       9.611  -0.892  17.482  0.00  0.00     0.210 HD
ENDBRANCH   1  50
TORSDOF 16
