REMARK VINA RESULT:      -9.3      1.316      1.983
REMARK  16 active torsions:
REMARK  status: ('A' for Active; 'I' for Inactive)
REMARK    1  A    between atoms: O_1  and  C_2 
REMARK    2  A    between atoms: C_3  and  C_4 
REMARK    3  A    between atoms: C_4  and  O_5 
REMARK    4  A    between atoms: O_5  and  C_6 
REMARK    5  A    between atoms: C_6  and  C_8 
REMARK    6  A    between atoms: C_9  and  C_10 
REMARK    7  A    between atoms: C_13  and  O_14 
REMARK    8  A    between atoms: C_18  and  O_19 
REMARK    9  A    between atoms: O_19  and  C_20 
REMARK   10  A    between atoms: C_23  and  O_24 
REMARK   11  A    between atoms: C_26  and  O_27 
REMARK   12  A    between atoms: C_31  and  C_32 
REMARK   13  A    between atoms: C_35  and  O_36 
REMARK   14  A    between atoms: C_37  and  O_38 
REMARK   15  A    between atoms: C_40  and  O_41 
REMARK   16  A    between atoms: C_42  and  O_43 
ROOT
ATOM      1  C   UNL d   1       9.464  -1.091  17.684  0.00  0.00     0.178 C 
ATOM      2  C   UNL d   1      10.232  -1.705  18.899  0.00  0.00     0.191 C 
ATOM      3  O   UNL d   1      10.252  -0.858  20.043  0.00  0.00    -0.330 OA
ATOM      4  C   UNL d   1      10.304   0.518  19.724  0.00  0.00     0.340 C 
ATOM      5  C   UNL d   1       8.993   1.002  19.061  0.00  0.00     0.214 C 
ATOM      6  C   UNL d   1       8.370  -0.120  18.187  0.00  0.00     0.180 C 
ENDROOT
BRANCH   4   7
ATOM      7  O   UNL d   1      10.578   1.276  20.907  0.00  0.00    -0.452 OA
BRANCH   7   8
ATOM      8  C   UNL d   1       9.682   1.540  21.965  0.00  0.00     0.229 A 
ATOM      9  C   UNL d   1       8.902   0.538  22.567  0.00  0.00     0.076 A 
ATOM     10  C   UNL d   1       8.042   0.851  23.631  0.00  0.00     0.124 A 
ATOM     11  C   UNL d   1       7.270  -0.121  24.322  0.00  0.00     0.137 A 
ATOM     12  C   UNL d   1       7.954   2.206  24.021  0.00  0.00     0.371 A 
ATOM     13  C   UNL d   1       6.418   0.287  25.355  0.00  0.00     0.092 A 
ATOM     14  C   UNL d   1       6.332   1.633  25.726  0.00  0.00     0.129 A 
ATOM     15  C   UNL d   1       7.098   2.587  25.057  0.00  0.00     0.160 A 
ATOM     16  O   UNL d   1       8.689   3.132  23.417  0.00  0.00    -0.200 OA
ATOM     17  C   UNL d   1       9.547   2.860  22.438  0.00  0.00     0.405 A 
BRANCH  11  18
ATOM     18  O   UNL d   1       7.327  -1.489  24.037  0.00  0.00    -0.506 OA
ATOM     19  H   UNL d   1       6.612  -2.155  24.289  0.00  0.00     0.292 HD
ENDBRANCH  11  18
BRANCH  14  20
ATOM     20  O   UNL d   1       5.495   2.031  26.766  0.00  0.00    -0.506 OA
ATOM     21  H   UNL d   1       4.537   2.316  26.596  0.00  0.00     0.292 HD
ENDBRANCH  14  20
BRANCH  17  22
ATOM     22  C   UNL d   1      10.333   3.980  21.873  0.00  0.00     0.086 A 
ATOM     23  C   UNL d   1       9.818   4.708  20.790  0.00  0.00     0.021 A 
ATOM     24  C   UNL d   1      10.535   5.782  20.256  0.00  0.00     0.050 A 
ATOM     25  C   UNL d   1      11.768   6.153  20.809  0.00  0.00     0.158 A 
ATOM     26  C   UNL d   1      12.280   5.444  21.909  0.00  0.00     0.159 A 
ATOM     27  C   UNL d   1      11.560   4.368  22.439  0.00  0.00     0.066 A 
BRANCH  25  28
ATOM     28  O   UNL d   1      12.482   7.224  20.273  0.00  0.00    -0.503 OA
ATOM     29  H   UNL d   1      12.062   8.140  20.162  0.00  0.00     0.292 HD
ENDBRANCH  25  28
BRANCH  26  30
ATOM     30  O   UNL d   1      13.498   5.798  22.490  0.00  0.00    -0.503 OA
ATOM     31  H   UNL d   1      13.837   5.360  23.337  0.00  0.00     0.292 HD
ENDBRANCH  26  30
ENDBRANCH  17  22
ENDBRANCH   7   8
ENDBRANCH   4   7
BRANCH   5  32
ATOM     32  O   UNL d   1       9.278   2.144  18.293  0.00  0.00    -0.383 OA
ATOM     33  H   UNL d   1       8.440   2.675  18.238  0.00  0.00     0.210 HD
ENDBRANCH   5  32
BRANCH   2  34
ATOM     34  C   UNL d   1       9.636  -3.050  19.350  0.00  0.00     0.267 C 
BRANCH  34  35
ATOM     35  O   UNL d   1       9.920  -3.245  20.733  0.00  0.00    -0.459 OA
BRANCH  35  36
ATOM     36  C   UNL d   1       8.930  -3.289  21.716  0.00  0.00     0.332 C 
ATOM     37  O   UNL d   1       7.883  -2.598  21.599  0.00  0.00    -0.246 OA
BRANCH  36  38
ATOM     38  C   UNL d   1       9.132  -4.106  22.923  0.00  0.00     0.092 C 
ATOM     39  C   UNL d   1       9.775  -3.619  23.994  0.00  0.00     0.015 C 
BRANCH  39  40
ATOM     40  C   UNL d   1       9.919  -4.340  25.282  0.00  0.00    -0.025 A 
ATOM     41  C   UNL d   1       8.799  -5.016  25.799  0.00  0.00     0.011 A 
ATOM     42  C   UNL d   1       8.898  -5.755  26.980  0.00  0.00     0.046 A 
ATOM     43  C   UNL d   1      10.116  -5.841  27.657  0.00  0.00     0.117 A 
ATOM     44  C   UNL d   1      11.241  -5.180  27.149  0.00  0.00     0.046 A 
ATOM     45  C   UNL d   1      11.147  -4.437  25.967  0.00  0.00     0.011 A 
BRANCH  43  46
ATOM     46  O   UNL d   1      10.203  -6.593  28.827  0.00  0.00    -0.507 OA
ATOM     47  H   UNL d   1      10.999  -6.513  29.450  0.00  0.00     0.292 HD
ENDBRANCH  43  46
ENDBRANCH  39  40
ENDBRANCH  36  38
ENDBRANCH  35  36
ENDBRANCH  34  35
ENDBRANCH   2  34
BRANCH   6  48
ATOM     48  O   UNL d   1       7.610   0.405  17.125  0.00  0.00    -0.386 OA
ATOM     49  H   UNL d   1       7.509  -0.307  16.442  0.00  0.00     0.210 HD
ENDBRANCH   6  48
BRANCH   1  50
ATOM     50  O   UNL d   1       8.954  -2.077  16.816  0.00  0.00    -0.386 OA
ATOM     51  H   UNL d   1       8.171  -2.503  17.250  0.00  0.00     0.210 HD
ENDBRANCH   1  50
TORSDOF 16
