REMARK VINA RESULT:      -9.7      0.000      0.000
REMARK  16 active torsions:
REMARK  status: ('A' for Active; 'I' for Inactive)
REMARK    1  A    between atoms: O_1  and  C_2 
REMARK    2  A    between atoms: C_3  and  C_4 
REMARK    3  A    between atoms: C_4  and  O_5 
REMARK    4  A    between atoms: O_5  and  C_6 
REMARK    5  A    between atoms: C_6  and  C_8 
REMARK    6  A    between atoms: C_9  and  C_10 
REMARK    7  A    between atoms: C_13  and  O_14 
REMARK    8  A    between atoms: C_18  and  O_19 
REMARK    9  A    between atoms: O_19  and  C_20 
REMARK   10  A    between atoms: C_23  and  O_24 
REMARK   11  A    between atoms: C_26  and  O_27 
REMARK   12  A    between atoms: C_31  and  C_32 
REMARK   13  A    between atoms: C_35  and  O_36 
REMARK   14  A    between atoms: C_37  and  O_38 
REMARK   15  A    between atoms: C_40  and  O_41 
REMARK   16  A    between atoms: C_42  and  O_43 
ROOT
ATOM      1  C   UNL d   1       9.380  -0.918  17.660  0.00  0.00     0.178 C 
ATOM      2  C   UNL d   1      10.077  -1.415  18.968  0.00  0.00     0.191 C 
ATOM      3  O   UNL d   1      10.034  -0.467  20.029  0.00  0.00    -0.330 OA
ATOM      4  C   UNL d   1      10.108   0.874  19.588  0.00  0.00     0.340 C 
ATOM      5  C   UNL d   1       8.837   1.292  18.811  0.00  0.00     0.214 C 
ATOM      6  C   UNL d   1       8.262   0.093  18.010  0.00  0.00     0.180 C 
ENDROOT
BRANCH   4   7
ATOM      7  O   UNL d   1      10.317   1.738  20.711  0.00  0.00    -0.452 OA
BRANCH   7   8
ATOM      8  C   UNL d   1       9.509   1.830  21.864  0.00  0.00     0.229 A 
ATOM      9  C   UNL d   1       8.768   0.743  22.361  0.00  0.00     0.076 A 
ATOM     10  C   UNL d   1       7.998   0.882  23.526  0.00  0.00     0.124 A 
ATOM     11  C   UNL d   1       7.273  -0.188  24.114  0.00  0.00     0.137 A 
ATOM     12  C   UNL d   1       7.956   2.159  24.130  0.00  0.00     0.371 A 
ATOM     13  C   UNL d   1       6.509   0.049  25.262  0.00  0.00     0.092 A 
ATOM     14  C   UNL d   1       6.466   1.319  25.847  0.00  0.00     0.129 A 
ATOM     15  C   UNL d   1       7.188   2.368  25.278  0.00  0.00     0.160 A 
ATOM     16  O   UNL d   1       8.650   3.170  23.624  0.00  0.00    -0.200 OA
ATOM     17  C   UNL d   1       9.425   3.058  22.549  0.00  0.00     0.405 A 
BRANCH  11  18
ATOM     18  O   UNL d   1       7.293  -1.494  23.613  0.00  0.00    -0.506 OA
ATOM     19  H   UNL d   1       7.252  -2.326  24.184  0.00  0.00     0.292 HD
ENDBRANCH  11  18
BRANCH  14  20
ATOM     20  O   UNL d   1       5.718   1.546  27.000  0.00  0.00    -0.506 OA
ATOM     21  H   UNL d   1       4.748   1.260  27.067  0.00  0.00     0.292 HD
ENDBRANCH  14  20
BRANCH  17  22
ATOM     22  C   UNL d   1      10.177   4.254  22.108  0.00  0.00     0.086 A 
ATOM     23  C   UNL d   1      11.369   4.600  22.760  0.00  0.00     0.021 A 
ATOM     24  C   UNL d   1      12.105   5.713  22.345  0.00  0.00     0.050 A 
ATOM     25  C   UNL d   1      11.666   6.486  21.262  0.00  0.00     0.158 A 
ATOM     26  C   UNL d   1      10.485   6.133  20.587  0.00  0.00     0.159 A 
ATOM     27  C   UNL d   1       9.750   5.019  21.007  0.00  0.00     0.066 A 
BRANCH  25  28
ATOM     28  O   UNL d   1      12.401   7.598  20.851  0.00  0.00    -0.503 OA
ATOM     29  H   UNL d   1      11.965   8.369  20.359  0.00  0.00     0.292 HD
ENDBRANCH  25  28
BRANCH  26  30
ATOM     30  O   UNL d   1      10.030   6.874  19.496  0.00  0.00    -0.503 OA
ATOM     31  H   UNL d   1       9.629   6.434  18.677  0.00  0.00     0.292 HD
ENDBRANCH  26  30
ENDBRANCH  17  22
ENDBRANCH   7   8
ENDBRANCH   4   7
BRANCH   5  32
ATOM     32  O   UNL d   1       9.168   2.359  17.958  0.00  0.00    -0.383 OA
ATOM     33  H   UNL d   1      10.158   2.364  17.867  0.00  0.00     0.210 HD
ENDBRANCH   5  32
BRANCH   2  34
ATOM     34  C   UNL d   1       9.454  -2.715  19.506  0.00  0.00     0.267 C 
BRANCH  34  35
ATOM     35  O   UNL d   1      10.213  -3.825  19.037  0.00  0.00    -0.459 OA
BRANCH  35  36
ATOM     36  C   UNL d   1      10.436  -4.975  19.799  0.00  0.00     0.332 C 
ATOM     37  O   UNL d   1      11.308  -5.814  19.449  0.00  0.00    -0.246 OA
BRANCH  36  38
ATOM     38  C   UNL d   1       9.612  -5.234  20.990  0.00  0.00     0.092 C 
ATOM     39  C   UNL d   1      10.143  -5.214  22.221  0.00  0.00     0.015 C 
BRANCH  39  40
ATOM     40  C   UNL d   1       9.358  -5.355  23.472  0.00  0.00    -0.025 A 
ATOM     41  C   UNL d   1       9.234  -4.235  24.313  0.00  0.00     0.011 A 
ATOM     42  C   UNL d   1       8.461  -4.301  25.475  0.00  0.00     0.046 A 
ATOM     43  C   UNL d   1       7.791  -5.480  25.809  0.00  0.00     0.117 A 
ATOM     44  C   UNL d   1       7.900  -6.600  24.976  0.00  0.00     0.046 A 
ATOM     45  C   UNL d   1       8.675  -6.540  23.812  0.00  0.00     0.011 A 
BRANCH  43  46
ATOM     46  O   UNL d   1       7.013  -5.527  26.963  0.00  0.00    -0.507 OA
ATOM     47  H   UNL d   1       6.186  -4.950  27.069  0.00  0.00     0.292 HD
ENDBRANCH  43  46
ENDBRANCH  39  40
ENDBRANCH  36  38
ENDBRANCH  35  36
ENDBRANCH  34  35
ENDBRANCH   2  34
BRANCH   6  48
ATOM     48  O   UNL d   1       7.565   0.516  16.863  0.00  0.00    -0.386 OA
ATOM     49  H   UNL d   1       6.890  -0.177  16.643  0.00  0.00     0.210 HD
ENDBRANCH   6  48
BRANCH   1  50
ATOM     50  O   UNL d   1       8.919  -1.980  16.859  0.00  0.00    -0.386 OA
ATOM     51  H   UNL d   1       8.404  -2.605  17.432  0.00  0.00     0.210 HD
ENDBRANCH   1  50
TORSDOF 16
