@<TRIPOS>MOLECULE
Malvidin 3-O-(6''-p-coumaroyl-glucoside)
 77 81 0 0 0
SMALL
GASTEIGER

@<TRIPOS>ATOM
      1 C          -8.5707    2.4264   -1.3268 C.3     1  UNL1        0.0790
      2 O          -7.8588    1.6279   -2.2668 O.3     1  UNL1       -0.4913
      3 C          -6.6139    1.0272   -2.0200 C.ar    1  UNL1        0.1658
      4 C          -5.9459    1.1689   -0.7904 C.ar    1  UNL1        0.0002
      5 C          -4.6987    0.5642   -0.5782 C.ar    1  UNL1        0.0899
      6 C          -4.1332   -0.2172   -1.5999 C.ar    1  UNL1        0.0002
      7 C          -4.7859   -0.3614   -2.8386 C.ar    1  UNL1        0.1658
      8 O          -4.2342   -1.1189   -3.8846 O.3     1  UNL1       -0.4913
      9 C          -2.9501   -1.7327   -3.8492 C.3     1  UNL1        0.0790
     10 C          -6.0286    0.2653   -3.0402 C.ar    1  UNL1        0.2011
     11 O          -6.7015    0.1388   -4.2566 O.3     1  UNL1       -0.5009
     12 C          -4.0348    0.7176    0.7390 C.ar    1  UNL1        0.4047
     13 O          -4.7952    0.6746    1.8293 O.2     1  UNL1       -0.1997
     14 C          -4.3155    0.7978    3.0611 C.ar    1  UNL1        0.3708
     15 C          -2.9314    0.9897    3.2793 C.ar    1  UNL1        0.1241
     16 C          -2.1016    1.0600    2.1488 C.ar    1  UNL1        0.0093
     17 C          -2.6466    0.9268    0.8602 C.ar    1  UNL1        0.2288
     18 O          -1.8570    1.0237   -0.2989 O.3     1  UNL1       -0.4515
     19 C          -0.4356    1.1505   -0.3278 C.3     1  UNL1        0.2313
     20 O           0.1360    0.0195    0.3235 O.3     1  UNL1       -0.3302
     21 C           1.5278   -0.0496    0.0801 C.3     1  UNL1        0.1250
     22 C           2.1793   -0.9590    1.1284 C.3     1  UNL1        0.1215
     23 O           3.5784   -1.0596    0.8812 O.3     1  UNL1       -0.4589
     24 C           4.4360   -1.8242    1.6788 C.2     1  UNL1        0.3320
     25 O           3.9895   -2.4481    2.6794 O.2     1  UNL1       -0.2456
     26 C           5.8696   -1.9098    1.3607 C.2     1  UNL1        0.0231
     27 C           6.3937   -1.2969    0.2904 C.2     1  UNL1       -0.0478
     28 C           7.8291   -1.3654   -0.0790 C.ar    1  UNL1       -0.0246
     29 C           8.1975   -1.0694   -1.4026 C.ar    1  UNL1       -0.0511
     30 C           9.5387   -1.1118   -1.7945 C.ar    1  UNL1       -0.0196
     31 C          10.5324   -1.4393   -0.8685 C.ar    1  UNL1        0.1169
     32 O          11.8647   -1.4781   -1.2732 O.3     1  UNL1       -0.5068
     33 C          10.1796   -1.7211    0.4570 C.ar    1  UNL1       -0.0196
     34 C           8.8390   -1.6807    0.8532 C.ar    1  UNL1       -0.0511
     35 C           1.7783   -0.5111   -1.3862 C.3     1  UNL1        0.1130
     36 O           1.9360   -1.9060   -1.4917 O.3     1  UNL1       -0.3864
     37 C           0.6244   -0.0343   -2.3103 C.3     1  UNL1        0.1152
     38 O           1.0357    0.0532   -3.6525 O.3     1  UNL1       -0.3864
     39 C           0.0182    1.2942   -1.8119 C.3     1  UNL1        0.1454
     40 O           0.9674    2.3285   -1.9074 O.3     1  UNL1       -0.3829
     41 C          -2.4503    1.1108    4.6098 C.ar    1  UNL1        0.1366
     42 O          -1.0995    1.2893    4.9233 O.3     1  UNL1       -0.5057
     43 C          -3.3551    1.0475    5.6768 C.ar    1  UNL1        0.0225
     44 C          -4.7229    0.8610    5.4484 C.ar    1  UNL1        0.1293
     45 O          -5.6184    0.7979    6.5138 O.3     1  UNL1       -0.5063
     46 C          -5.1978    0.7356    4.1428 C.ar    1  UNL1        0.0847
     47 H          -7.9692    3.3179   -1.0500 H       1  UNL1        0.0660
     48 H          -8.8096    1.8290   -0.4217 H       1  UNL1        0.0660
     49 H          -9.5202    2.7680   -1.7874 H       1  UNL1        0.0660
     50 H          -6.3858    1.7584    0.0032 H       1  UNL1        0.0664
     51 H          -3.2011   -0.7335   -1.4192 H       1  UNL1        0.0664
     52 H          -2.9061   -2.4853   -3.0340 H       1  UNL1        0.0660
     53 H          -2.7673   -2.2462   -4.8152 H       1  UNL1        0.0660
     54 H          -2.1661   -0.9607   -3.7043 H       1  UNL1        0.0660
     55 H          -6.3279   -0.3988   -5.0294 H       1  UNL1        0.2924
     56 H          -1.0454    1.2344    2.2514 H       1  UNL1        0.0667
     57 H          -0.1640    2.0762    0.2297 H       1  UNL1        0.1084
     58 H           1.9928    0.9565    0.2216 H       1  UNL1        0.0658
     59 H           1.7168   -1.9695    1.1100 H       1  UNL1        0.0725
     60 H           2.0147   -0.5220    2.1378 H       1  UNL1        0.0725
     61 H           6.4879   -2.5138    2.0104 H       1  UNL1        0.0689
     62 H           5.7353   -0.7508   -0.3757 H       1  UNL1        0.0626
     63 H           7.4440   -0.8129   -2.1376 H       1  UNL1        0.0625
     64 H           9.8060   -0.8884   -2.8196 H       1  UNL1        0.0654
     65 H          12.6083   -1.7111   -0.6253 H       1  UNL1        0.2921
     66 H          10.9444   -1.9646    1.1836 H       1  UNL1        0.0654
     67 H           8.6077   -1.8734    1.8913 H       1  UNL1        0.0625
     68 H           2.7313   -0.0433   -1.7179 H       1  UNL1        0.0647
     69 H           1.0977   -2.3295   -1.1694 H       1  UNL1        0.2100
     70 H          -0.1932   -0.7871   -2.2686 H       1  UNL1        0.0648
     71 H           1.8034    0.6800   -3.6981 H       1  UNL1        0.2100
     72 H          -0.8703    1.5396   -2.4433 H       1  UNL1        0.0683
     73 H           0.8738    2.7315   -2.8099 H       1  UNL1        0.2102
     74 H          -0.3535    1.3236    4.2441 H       1  UNL1        0.2922
     75 H          -2.9892    1.1416    6.6918 H       1  UNL1        0.0691
     76 H          -5.3066    0.8850    7.4740 H       1  UNL1        0.2921
     77 H          -6.2567    0.5898    3.9678 H       1  UNL1        0.0749
@<TRIPOS>UNITY_ATOM_ATTR
13 1
charge 1
@<TRIPOS>BOND
     1     1     2    1
     2     2     3    1
     3     3     4   ar
     4     4     5   ar
     5     5     6   ar
     6     6     7   ar
     7     7     8    1
     8     8     9    1
     9     7    10   ar
    10    10    11    1
    11     5    12    1
    12    12    13   ar
    13    13    14   ar
    14    14    15   ar
    15    15    16   ar
    16    16    17   ar
    17    17    18    1
    18    18    19    1
    19    19    20    1
    20    20    21    1
    21    21    22    1
    22    22    23    1
    23    23    24    1
    24    24    25    2
    25    24    26    1
    26    26    27    2
    27    27    28    1
    28    28    29   ar
    29    29    30   ar
    30    30    31   ar
    31    31    32    1
    32    31    33   ar
    33    33    34   ar
    34    21    35    1
    35    35    36    1
    36    35    37    1
    37    37    38    1
    38    37    39    1
    39    39    40    1
    40    15    41   ar
    41    41    42    1
    42    41    43   ar
    43    43    44   ar
    44    44    45    1
    45    44    46   ar
    46    10     3   ar
    47    17    12   ar
    48    39    19    1
    49    46    14   ar
    50    34    28   ar
    51     1    47    1
    52     1    48    1
    53     1    49    1
    54     4    50    1
    55     6    51    1
    56     9    52    1
    57     9    53    1
    58     9    54    1
    59    11    55    1
    60    16    56    1
    61    19    57    1
    62    21    58    1
    63    22    59    1
    64    22    60    1
    65    26    61    1
    66    27    62    1
    67    29    63    1
    68    30    64    1
    69    32    65    1
    70    33    66    1
    71    34    67    1
    72    35    68    1
    73    36    69    1
    74    37    70    1
    75    38    71    1
    76    39    72    1
    77    40    73    1
    78    42    74    1
    79    43    75    1
    80    45    76    1
    81    46    77    1
