@<TRIPOS>MOLECULE
Peonidin 3-O-glucoside
 56 59 0 0 0
SMALL
GASTEIGER

@<TRIPOS>ATOM
      1 C          -4.7391   -4.0388   -0.1551 C.3     1  UNL1        0.0790
      2 O          -3.9494   -4.1599    1.0236 O.3     1  UNL1       -0.4914
      3 C          -3.0404   -3.1904    1.4770 C.ar    1  UNL1        0.1621
      4 C          -2.3217   -3.4354    2.6611 C.ar    1  UNL1        0.1585
      5 O          -2.4979   -4.6179    3.3796 O.3     1  UNL1       -0.5033
      6 C          -1.4160   -2.4844    3.1395 C.ar    1  UNL1       -0.0157
      7 C          -1.2118   -1.2904    2.4466 C.ar    1  UNL1       -0.0418
      8 C          -1.9038   -1.0366    1.2510 C.ar    1  UNL1        0.0865
      9 C          -2.8293   -1.9827    0.7817 C.ar    1  UNL1       -0.0001
     10 C          -1.7152    0.2299    0.5068 C.ar    1  UNL1        0.4046
     11 O          -2.7934    0.8385    0.0218 O.2     1  UNL1       -0.1997
     12 C          -2.7451    1.9800   -0.6548 C.ar    1  UNL1        0.3708
     13 C          -3.9354    2.5431   -1.1221 C.ar    1  UNL1        0.0847
     14 C          -3.9166    3.7433   -1.8327 C.ar    1  UNL1        0.1293
     15 O          -5.1139    4.2891   -2.2903 O.3     1  UNL1       -0.5063
     16 C          -2.6992    4.3874   -2.0793 C.ar    1  UNL1        0.0225
     17 C          -1.4924    3.8431   -1.6224 C.ar    1  UNL1        0.1366
     18 O          -0.3203    4.5484   -1.9112 O.3     1  UNL1       -0.5057
     19 C          -1.5080    2.6213   -0.8991 C.ar    1  UNL1        0.1241
     20 C          -0.3479    1.9978   -0.4111 C.ar    1  UNL1        0.0093
     21 C          -0.4385    0.7823    0.2882 C.ar    1  UNL1        0.2288
     22 O           0.6983    0.0949    0.7479 O.3     1  UNL1       -0.4515
     23 C           2.0509    0.5088    0.5608 C.3     1  UNL1        0.2312
     24 O           2.3389    0.5017   -0.8314 O.3     1  UNL1       -0.3313
     25 C           3.7235    0.6868   -1.0527 C.3     1  UNL1        0.1140
     26 C           3.9381    1.0601   -2.5258 C.3     1  UNL1        0.0731
     27 O           5.2801    1.3924   -2.7645 O.3     1  UNL1       -0.3924
     28 C           4.4953   -0.6035   -0.6662 C.3     1  UNL1        0.1120
     29 O           5.7761   -0.2503   -0.2083 O.3     1  UNL1       -0.3865
     30 C           3.7398   -1.3980    0.4322 C.3     1  UNL1        0.1152
     31 O           2.8223   -2.2834   -0.1601 O.3     1  UNL1       -0.3864
     32 C           2.9772   -0.4482    1.3706 C.3     1  UNL1        0.1454
     33 O           3.9032    0.2945    2.1229 O.3     1  UNL1       -0.3829
     34 H          -4.0833   -3.9462   -1.0464 H       1  UNL1        0.0660
     35 H          -5.3640   -4.9483   -0.2674 H       1  UNL1        0.0660
     36 H          -5.4079   -3.1556   -0.0778 H       1  UNL1        0.0660
     37 H          -3.1411   -5.3409    3.0804 H       1  UNL1        0.2923
     38 H          -0.8735   -2.6689    4.0581 H       1  UNL1        0.0655
     39 H          -0.5299   -0.5578    2.8591 H       1  UNL1        0.0628
     40 H          -3.3710   -1.7773   -0.1323 H       1  UNL1        0.0664
     41 H          -4.8788    2.0462   -0.9315 H       1  UNL1        0.0749
     42 H          -5.1355    5.1592   -2.8093 H       1  UNL1        0.2921
     43 H          -2.6881    5.3192   -2.6312 H       1  UNL1        0.0691
     44 H           0.6058    4.2592   -1.6325 H       1  UNL1        0.2922
     45 H           0.6219    2.4329   -0.5743 H       1  UNL1        0.0667
     46 H           2.1522    1.5446    0.9590 H       1  UNL1        0.1084
     47 H           4.0964    1.5481   -0.4462 H       1  UNL1        0.0647
     48 H           3.3141    1.9480   -2.7636 H       1  UNL1        0.0584
     49 H           3.6040    0.2331   -3.1948 H       1  UNL1        0.0584
     50 H           5.7517    0.5469   -2.9834 H       1  UNL1        0.2095
     51 H           4.5964   -1.2595   -1.5640 H       1  UNL1        0.0647
     52 H           6.3374   -1.0678   -0.2615 H       1  UNL1        0.2100
     53 H           4.4660   -1.9849    1.0436 H       1  UNL1        0.0648
     54 H           3.3454   -3.0565   -0.4988 H       1  UNL1        0.2100
     55 H           2.3676   -1.0725    2.0673 H       1  UNL1        0.0683
     56 H           3.4060    0.6755    2.8934 H       1  UNL1        0.2102
@<TRIPOS>UNITY_ATOM_ATTR
11 1
charge 1
@<TRIPOS>BOND
     1     1     2    1
     2     2     3    1
     3     3     4   ar
     4     4     5    1
     5     4     6   ar
     6     6     7   ar
     7     7     8   ar
     8     8     9   ar
     9     8    10    1
    10    10    11   ar
    11    11    12   ar
    12    12    13   ar
    13    13    14   ar
    14    14    15    1
    15    14    16   ar
    16    16    17   ar
    17    17    18    1
    18    17    19   ar
    19    19    20   ar
    20    20    21   ar
    21    21    22    1
    22    22    23    1
    23    23    24    1
    24    24    25    1
    25    25    26    1
    26    26    27    1
    27    25    28    1
    28    28    29    1
    29    28    30    1
    30    30    31    1
    31    30    32    1
    32    32    33    1
    33     9     3   ar
    34    21    10   ar
    35    32    23    1
    36    19    12   ar
    37     1    34    1
    38     1    35    1
    39     1    36    1
    40     5    37    1
    41     6    38    1
    42     7    39    1
    43     9    40    1
    44    13    41    1
    45    15    42    1
    46    16    43    1
    47    18    44    1
    48    20    45    1
    49    23    46    1
    50    25    47    1
    51    26    48    1
    52    26    49    1
    53    27    50    1
    54    28    51    1
    55    29    52    1
    56    30    53    1
    57    31    54    1
    58    32    55    1
    59    33    56    1
