@<TRIPOS>MOLECULE
Procyanidin trimer C1
 101 109 0 0 0
SMALL
GASTEIGER

@<TRIPOS>ATOM
      1 C          -3.2078    0.8443   -1.5148 C.3     1  UNL1        0.0528
      2 C          -3.9950    0.9676   -0.1857 C.3     1  UNL1        0.1074
      3 O          -4.0369    2.3132    0.2183 O.3     1  UNL1       -0.3868
      4 C          -5.4197    0.3885   -0.3027 C.3     1  UNL1        0.1518
      5 O          -5.3676   -0.9481   -0.8037 O.3     1  UNL1       -0.4811
      6 C          -4.4321   -1.3739   -1.7538 C.ar    1  UNL1        0.1323
      7 C          -4.5698   -2.6494   -2.3078 C.ar    1  UNL1        0.0221
      8 C          -3.7164   -3.0732   -3.3271 C.ar    1  UNL1        0.1238
      9 O          -3.8691   -4.3487   -3.8659 O.3     1  UNL1       -0.5065
     10 C          -2.7289   -2.2083   -3.8101 C.ar    1  UNL1        0.0218
     11 C          -2.5721   -0.9302   -3.2568 C.ar    1  UNL1        0.1276
     12 O          -1.6183   -0.0632   -3.7899 O.3     1  UNL1       -0.5062
     13 C          -3.3832   -0.5248   -2.1710 C.ar    1  UNL1        0.0461
     14 C          -6.3499    1.2662   -1.1268 C.ar    1  UNL1       -0.0012
     15 C          -7.0626    2.2966   -0.4895 C.ar    1  UNL1       -0.0098
     16 C          -7.9048    3.1508   -1.2115 C.ar    1  UNL1        0.1586
     17 O          -8.5804    4.1492   -0.5067 O.3     1  UNL1       -0.5033
     18 C          -8.0391    2.9781   -2.6084 C.ar    1  UNL1        0.1582
     19 O          -8.8604    3.7889   -3.3945 O.3     1  UNL1       -0.5033
     20 C          -7.3253    1.9580   -3.2447 C.ar    1  UNL1       -0.0162
     21 C          -6.4873    1.1114   -2.5173 C.ar    1  UNL1       -0.0513
     22 C          -1.7376    1.1888   -1.2465 C.ar    1  UNL1        0.0463
     23 C          -0.8851    0.2215   -0.6564 C.ar    1  UNL1        0.1361
     24 O          -1.4345   -0.9955   -0.2243 O.3     1  UNL1       -0.4808
     25 C          -0.7117   -1.9771    0.5129 C.3     1  UNL1        0.1519
     26 C           0.7383   -2.0294    0.0058 C.3     1  UNL1        0.1074
     27 O           1.4934   -2.9934    0.7008 O.3     1  UNL1       -0.3868
     28 C           1.4200   -0.6341    0.0221 C.3     1  UNL1        0.0528
     29 C           2.7188   -0.7326   -0.7827 C.ar    1  UNL1        0.0463
     30 C           2.7057   -0.7279   -2.1968 C.ar    1  UNL1        0.1277
     31 O           1.5031   -0.6108   -2.8942 O.3     1  UNL1       -0.5062
     32 C           3.9025   -0.8457   -2.9112 C.ar    1  UNL1        0.0221
     33 C           5.1193   -1.0102   -2.2448 C.ar    1  UNL1        0.1271
     34 O           6.3037   -1.1117   -2.9750 O.3     1  UNL1       -0.5063
     35 C           5.1461   -1.0791   -0.8428 C.ar    1  UNL1        0.0387
     36 C           3.9486   -0.9223   -0.1112 C.ar    1  UNL1        0.1355
     37 O           3.9705   -0.9688    1.2925 O.3     1  UNL1       -0.4808
     38 C           5.1622   -1.0880    2.0739 C.3     1  UNL1        0.1513
     39 C           6.2511   -1.8497    1.2862 C.3     1  UNL1        0.1004
     40 O           7.4587   -1.9257    2.0043 O.3     1  UNL1       -0.3875
     41 C           6.4595   -1.2533   -0.1168 C.3     1  UNL1        0.0092
     42 C           5.6160    0.2726    2.5739 C.ar    1  UNL1       -0.0012
     43 C           6.1204    0.3982    3.8809 C.ar    1  UNL1       -0.0098
     44 C           6.5617    1.6393    4.3611 C.ar    1  UNL1        0.1586
     45 O           7.0565    1.7583    5.6587 O.3     1  UNL1       -0.5033
     46 C           6.5073    2.7671    3.5338 C.ar    1  UNL1        0.1582
     47 O           6.9452    3.9997    4.0146 O.3     1  UNL1       -0.5033
     48 C           6.0158    2.6489    2.2280 C.ar    1  UNL1       -0.0162
     49 C           5.5774    1.4120    1.7494 C.ar    1  UNL1       -0.0513
     50 C           0.4945    0.4807   -0.4741 C.ar    1  UNL1        0.0463
     51 C           0.9683    1.7951   -0.6920 C.ar    1  UNL1        0.1277
     52 O           2.2586    2.1948   -0.3412 O.3     1  UNL1       -0.5062
     53 C           0.1243    2.7565   -1.2423 C.ar    1  UNL1        0.0221
     54 C          -1.2157    2.4812   -1.5110 C.ar    1  UNL1        0.1277
     55 O          -1.9905    3.5364   -2.0026 O.3     1  UNL1       -0.5062
     56 C          -0.8294   -1.7535    2.0129 C.ar    1  UNL1       -0.0012
     57 C          -0.8459   -2.8676    2.8716 C.ar    1  UNL1       -0.0098
     58 C          -0.9261   -2.7025    4.2615 C.ar    1  UNL1        0.1586
     59 O          -0.9413   -3.8165    5.0994 O.3     1  UNL1       -0.5033
     60 C          -0.9894   -1.4109    4.8076 C.ar    1  UNL1        0.1582
     61 O          -1.0703   -1.2128    6.1856 O.3     1  UNL1       -0.5033
     62 C          -0.9701   -0.2995    3.9613 C.ar    1  UNL1       -0.0162
     63 C          -0.8886   -0.4648    2.5767 C.ar    1  UNL1       -0.0513
     64 H          -3.6477    1.5444   -2.2482 H       1  UNL1        0.0429
     65 H          -3.4653    0.3704    0.5938 H       1  UNL1        0.0643
     66 H          -4.2797    2.3173    1.1811 H       1  UNL1        0.2100
     67 H          -5.8385    0.3221    0.7257 H       1  UNL1        0.0811
     68 H          -5.3600   -3.3037   -1.9614 H       1  UNL1        0.0691
     69 H          -3.2692   -4.6847   -4.6102 H       1  UNL1        0.2921
     70 H          -2.0879   -2.5259   -4.6229 H       1  UNL1        0.0691
     71 H          -1.0342   -0.3310   -4.5731 H       1  UNL1        0.2921
     72 H          -6.9614    2.4423    0.5793 H       1  UNL1        0.0659
     73 H          -9.2068    4.8164   -0.9334 H       1  UNL1        0.2923
     74 H          -9.4172    4.5491   -3.0317 H       1  UNL1        0.2923
     75 H          -7.4198    1.8215   -4.3147 H       1  UNL1        0.0655
     76 H          -5.9521    0.3417   -3.0522 H       1  UNL1        0.0623
     77 H          -1.1831   -2.9569    0.2770 H       1  UNL1        0.0811
     78 H           0.6761   -2.3695   -1.0520 H       1  UNL1        0.0643
     79 H           1.6935   -2.6354    1.6042 H       1  UNL1        0.2100
     80 H           1.6427   -0.3732    1.0787 H       1  UNL1        0.0429
     81 H           1.4724   -0.6065   -3.9069 H       1  UNL1        0.2921
     82 H           3.8853   -0.8177   -3.9935 H       1  UNL1        0.0691
     83 H           6.3101   -1.0663   -3.9873 H       1  UNL1        0.2921
     84 H           4.8989   -1.7105    2.9572 H       1  UNL1        0.0811
     85 H           5.8859   -2.8918    1.1478 H       1  UNL1        0.0637
     86 H           7.8844   -1.0293    1.9871 H       1  UNL1        0.2100
     87 H           6.9659   -0.2671   -0.0511 H       1  UNL1        0.0342
     88 H           7.1238   -1.9378   -0.6878 H       1  UNL1        0.0342
     89 H           6.1739   -0.4694    4.5272 H       1  UNL1        0.0659
     90 H           7.1091    0.9606    6.2814 H       1  UNL1        0.2923
     91 H           6.9186    4.8331    3.4387 H       1  UNL1        0.2923
     92 H           5.9761    3.5158    1.5807 H       1  UNL1        0.0655
     93 H           5.2153    1.3516    0.7339 H       1  UNL1        0.0623
     94 H           2.8617    1.6456    0.2539 H       1  UNL1        0.2921
     95 H           0.5055    3.7549   -1.4198 H       1  UNL1        0.0691
     96 H          -2.9964    3.5236   -2.0855 H       1  UNL1        0.2921
     97 H          -0.7896   -3.8681    2.4599 H       1  UNL1        0.0659
     98 H          -0.8958   -4.7592    4.7304 H       1  UNL1        0.2923
     99 H          -1.0870   -1.9857    6.8402 H       1  UNL1        0.2923
    100 H          -1.0171    0.6983    4.3789 H       1  UNL1        0.0655
    101 H          -0.8748    0.4204    1.9600 H       1  UNL1        0.0623
@<TRIPOS>BOND
     1     1     2    1
     2     2     3    1
     3     2     4    1
     4     4     5    1
     5     5     6    1
     6     6     7   ar
     7     7     8   ar
     8     8     9    1
     9     8    10   ar
    10    10    11   ar
    11    11    12    1
    12    11    13   ar
    13     4    14    1
    14    14    15   ar
    15    15    16   ar
    16    16    17    1
    17    16    18   ar
    18    18    19    1
    19    18    20   ar
    20    20    21   ar
    21     1    22    1
    22    22    23   ar
    23    23    24    1
    24    24    25    1
    25    25    26    1
    26    26    27    1
    27    26    28    1
    28    28    29    1
    29    29    30   ar
    30    30    31    1
    31    30    32   ar
    32    32    33   ar
    33    33    34    1
    34    33    35   ar
    35    35    36   ar
    36    36    37    1
    37    37    38    1
    38    38    39    1
    39    39    40    1
    40    39    41    1
    41    38    42    1
    42    42    43   ar
    43    43    44   ar
    44    44    45    1
    45    44    46   ar
    46    46    47    1
    47    46    48   ar
    48    48    49   ar
    49    28    50    1
    50    50    51   ar
    51    51    52    1
    52    51    53   ar
    53    53    54   ar
    54    54    55    1
    55    25    56    1
    56    56    57   ar
    57    57    58   ar
    58    58    59    1
    59    58    60   ar
    60    60    61    1
    61    60    62   ar
    62    62    63   ar
    63    13     1    1
    64    21    14   ar
    65    54    22   ar
    66    63    56   ar
    67    13     6   ar
    68    50    23   ar
    69    36    29   ar
    70    49    42   ar
    71    41    35    1
    72     1    64    1
    73     2    65    1
    74     3    66    1
    75     4    67    1
    76     7    68    1
    77     9    69    1
    78    10    70    1
    79    12    71    1
    80    15    72    1
    81    17    73    1
    82    19    74    1
    83    20    75    1
    84    21    76    1
    85    25    77    1
    86    26    78    1
    87    27    79    1
    88    28    80    1
    89    31    81    1
    90    32    82    1
    91    34    83    1
    92    38    84    1
    93    39    85    1
    94    40    86    1
    95    41    87    1
    96    41    88    1
    97    43    89    1
    98    45    90    1
    99    47    91    1
   100    48    92    1
   101    49    93    1
   102    52    94    1
   103    53    95    1
   104    55    96    1
   105    57    97    1
   106    59    98    1
   107    61    99    1
   108    62   100    1
   109    63   101    1
