@<TRIPOS>MOLECULE
Procyanidin trimer EEC
 101 109 0 0 0
SMALL
GASTEIGER

@<TRIPOS>ATOM
      1 C           5.1243    1.2824   -2.0732 C.3     1  UNL1        0.1004
      2 O           5.5158    1.4431   -3.4124 O.3     1  UNL1       -0.3875
      3 C           5.5848    2.4920   -1.2514 C.3     1  UNL1        0.0092
      4 C           5.0488    2.4359    0.1576 C.ar    1  UNL1        0.0387
      5 C           3.8283    1.7789    0.4169 C.ar    1  UNL1        0.1355
      6 O           3.1638    1.1149   -0.6267 O.3     1  UNL1       -0.4808
      7 C           3.5927    1.1547   -1.9909 C.3     1  UNL1        0.1513
      8 C           3.1366   -0.0935   -2.7105 C.ar    1  UNL1       -0.0012
      9 C           2.7374   -0.0233   -4.0546 C.ar    1  UNL1       -0.0513
     10 C           2.4220   -1.1871   -4.7598 C.ar    1  UNL1       -0.0162
     11 C           2.5011   -2.4378   -4.1324 C.ar    1  UNL1        0.1582
     12 O           2.1816   -3.5971   -4.8374 O.3     1  UNL1       -0.5033
     13 C           2.8965   -2.5178   -2.7871 C.ar    1  UNL1        0.1586
     14 O           2.9754   -3.7457   -2.1310 O.3     1  UNL1       -0.5033
     15 C           3.2235   -1.3513   -2.0877 C.ar    1  UNL1       -0.0098
     16 C           3.2808    1.7667    1.7254 C.ar    1  UNL1        0.0463
     17 C           1.9009    1.1455    1.9697 C.3     1  UNL1        0.0528
     18 C           0.8203    1.6729    1.0223 C.ar    1  UNL1        0.0463
     19 C          -0.2274    0.8129    0.6109 C.ar    1  UNL1        0.1361
     20 O          -0.2379   -0.5325    1.0087 O.3     1  UNL1       -0.4808
     21 C           0.6331   -1.0848    1.9933 C.3     1  UNL1        0.1519
     22 C          -0.0053   -1.0443    3.3726 C.ar    1  UNL1       -0.0012
     23 C           0.1940   -2.1206    4.2546 C.ar    1  UNL1       -0.0513
     24 C          -0.3670   -2.1055    5.5335 C.ar    1  UNL1       -0.0162
     25 C          -1.1334   -1.0126    5.9561 C.ar    1  UNL1        0.1582
     26 O          -1.6937   -1.0008    7.2324 O.3     1  UNL1       -0.5033
     27 C          -1.3336    0.0729    5.0883 C.ar    1  UNL1        0.1586
     28 O          -2.0894    1.1777    5.4793 O.3     1  UNL1       -0.5033
     29 C          -0.7690    0.0557    3.8085 C.ar    1  UNL1       -0.0098
     30 C           2.0121   -0.4009    1.9245 C.3     1  UNL1        0.1074
     31 O           2.8828   -0.8956    2.9137 O.3     1  UNL1       -0.3868
     32 C          -1.2987    1.3007   -0.1759 C.ar    1  UNL1        0.0463
     33 C          -2.4879    0.4025   -0.5229 C.3     1  UNL1        0.0528
     34 C          -2.0443   -0.8913   -1.2003 C.ar    1  UNL1        0.0461
     35 C          -2.5341   -2.1346   -0.7424 C.ar    1  UNL1        0.1323
     36 O          -3.5003   -2.1864    0.2668 O.3     1  UNL1       -0.4811
     37 C          -4.2984   -1.0471    0.5875 C.3     1  UNL1        0.1518
     38 C          -5.4250   -0.9226   -0.4410 C.ar    1  UNL1       -0.0012
     39 C          -5.8351    0.2965   -1.0231 C.ar    1  UNL1       -0.0513
     40 C          -6.8910    0.3298   -1.9377 C.ar    1  UNL1       -0.0162
     41 C          -7.5734   -0.8430   -2.2775 C.ar    1  UNL1        0.1582
     42 O          -8.6244   -0.8035   -3.1925 O.3     1  UNL1       -0.5033
     43 C          -7.1971   -2.0586   -1.6887 C.ar    1  UNL1        0.1586
     44 O          -7.8624   -3.2450   -1.9965 O.3     1  UNL1       -0.5033
     45 C          -6.1392   -2.0905   -0.7744 C.ar    1  UNL1       -0.0098
     46 C          -3.3402    0.1506    0.7582 C.3     1  UNL1        0.1074
     47 O          -4.0392    1.3023    1.1564 O.3     1  UNL1       -0.3868
     48 C          -2.0798   -3.3262   -1.3130 C.ar    1  UNL1        0.0221
     49 C          -1.2121   -3.2943   -2.4095 C.ar    1  UNL1        0.1238
     50 O          -0.7688   -4.4753   -3.0004 O.3     1  UNL1       -0.5065
     51 C          -0.7999   -2.0666   -2.9309 C.ar    1  UNL1        0.0218
     52 C          -1.2038   -0.8657   -2.3336 C.ar    1  UNL1        0.1276
     53 O          -0.7820    0.3503   -2.8711 O.3     1  UNL1       -0.5062
     54 C          -1.3169    2.6616   -0.5401 C.ar    1  UNL1        0.1277
     55 O          -2.3581    3.1734   -1.3156 O.3     1  UNL1       -0.5062
     56 C          -0.3021    3.5163   -0.1071 C.ar    1  UNL1        0.0221
     57 C           0.7366    3.0467    0.6998 C.ar    1  UNL1        0.1277
     58 O           1.6721    3.9552    1.1955 O.3     1  UNL1       -0.5062
     59 C           4.0243    2.3701    2.7784 C.ar    1  UNL1        0.1277
     60 O           3.6342    2.3267    4.1206 O.3     1  UNL1       -0.5062
     61 C           5.2128    3.0451    2.4935 C.ar    1  UNL1        0.0221
     62 C           5.7206    3.0963    1.1955 C.ar    1  UNL1        0.1271
     63 O           6.8993    3.7966    0.9370 O.3     1  UNL1       -0.5063
     64 H           5.5884    0.3600   -1.6483 H       1  UNL1        0.0637
     65 H           6.4871    1.2413   -3.4527 H       1  UNL1        0.2100
     66 H           5.2305    3.4307   -1.7305 H       1  UNL1        0.0342
     67 H           6.6964    2.5051   -1.2419 H       1  UNL1        0.0342
     68 H           3.1309    2.0507   -2.4635 H       1  UNL1        0.0811
     69 H           2.6870    0.9317   -4.5626 H       1  UNL1        0.0623
     70 H           2.1173   -1.1163   -5.7961 H       1  UNL1        0.0655
     71 H           1.8861   -3.5643   -5.8061 H       1  UNL1        0.2923
     72 H           2.7436   -4.6175   -2.5916 H       1  UNL1        0.2923
     73 H           3.5655   -1.4306   -1.0639 H       1  UNL1        0.0659
     74 H           1.5225    1.4298    2.9662 H       1  UNL1        0.0429
     75 H           0.7804   -2.1523    1.7166 H       1  UNL1        0.0811
     76 H           0.7886   -2.9740    3.9528 H       1  UNL1        0.0623
     77 H          -0.2035   -2.9451    6.1971 H       1  UNL1        0.0655
     78 H          -1.5628   -1.7720    7.8766 H       1  UNL1        0.2923
     79 H          -2.5193    1.2392    6.3944 H       1  UNL1        0.2923
     80 H          -0.9350    0.9066    3.1648 H       1  UNL1        0.0659
     81 H           2.4444   -0.6886    0.9446 H       1  UNL1        0.0643
     82 H           2.5805   -0.5463    3.7911 H       1  UNL1        0.2100
     83 H          -3.1341    0.9066   -1.2685 H       1  UNL1        0.0429
     84 H          -4.7797   -1.2366    1.5715 H       1  UNL1        0.0811
     85 H          -5.3574    1.2336   -0.7948 H       1  UNL1        0.0623
     86 H          -7.1815    1.2741   -2.3808 H       1  UNL1        0.0655
     87 H          -8.9150    0.0632   -3.6299 H       1  UNL1        0.2923
     88 H          -8.6348   -3.2747   -2.6512 H       1  UNL1        0.2923
     89 H          -5.8726   -3.0381   -0.3217 H       1  UNL1        0.0659
     90 H          -2.6609   -0.1456    1.5897 H       1  UNL1        0.0643
     91 H          -3.3811    1.9082    1.5869 H       1  UNL1        0.2100
     92 H          -2.4368   -4.2742   -0.9310 H       1  UNL1        0.0691
     93 H          -1.0520   -5.3823   -2.6484 H       1  UNL1        0.2921
     94 H          -0.1751   -2.0457   -3.8112 H       1  UNL1        0.0691
     95 H          -0.1851    0.3927   -3.6884 H       1  UNL1        0.2921
     96 H          -2.3946    4.1503   -1.5825 H       1  UNL1        0.2921
     97 H          -0.3418    4.5663   -0.3690 H       1  UNL1        0.0691
     98 H           1.6267    4.9435    0.9766 H       1  UNL1        0.2921
     99 H           2.9039    1.7378    4.4919 H       1  UNL1        0.2921
    100 H           5.7539    3.5282    3.2979 H       1  UNL1        0.0691
    101 H           7.4034    4.2796    1.6716 H       1  UNL1        0.2921
@<TRIPOS>BOND
     1     1     2    1
     2     1     3    1
     3     3     4    1
     4     4     5   ar
     5     5     6    1
     6     6     7    1
     7     7     8    1
     8     8     9   ar
     9     9    10   ar
    10    10    11   ar
    11    11    12    1
    12    11    13   ar
    13    13    14    1
    14    13    15   ar
    15     5    16   ar
    16    16    17    1
    17    17    18    1
    18    18    19   ar
    19    19    20    1
    20    20    21    1
    21    21    22    1
    22    22    23   ar
    23    23    24   ar
    24    24    25   ar
    25    25    26    1
    26    25    27   ar
    27    27    28    1
    28    27    29   ar
    29    21    30    1
    30    30    31    1
    31    19    32   ar
    32    32    33    1
    33    33    34    1
    34    34    35   ar
    35    35    36    1
    36    36    37    1
    37    37    38    1
    38    38    39   ar
    39    39    40   ar
    40    40    41   ar
    41    41    42    1
    42    41    43   ar
    43    43    44    1
    44    43    45   ar
    45    37    46    1
    46    46    47    1
    47    35    48   ar
    48    48    49   ar
    49    49    50    1
    50    49    51   ar
    51    51    52   ar
    52    52    53    1
    53    32    54   ar
    54    54    55    1
    55    54    56   ar
    56    56    57   ar
    57    57    58    1
    58    16    59   ar
    59    59    60    1
    60    59    61   ar
    61    61    62   ar
    62    62    63    1
    63     7     1    1
    64    15     8   ar
    65    30    17    1
    66    46    33    1
    67    62     4   ar
    68    57    18   ar
    69    29    22   ar
    70    52    34   ar
    71    45    38   ar
    72     1    64    1
    73     2    65    1
    74     3    66    1
    75     3    67    1
    76     7    68    1
    77     9    69    1
    78    10    70    1
    79    12    71    1
    80    14    72    1
    81    15    73    1
    82    17    74    1
    83    21    75    1
    84    23    76    1
    85    24    77    1
    86    26    78    1
    87    28    79    1
    88    29    80    1
    89    30    81    1
    90    31    82    1
    91    33    83    1
    92    37    84    1
    93    39    85    1
    94    40    86    1
    95    42    87    1
    96    44    88    1
    97    45    89    1
    98    46    90    1
    99    47    91    1
   100    48    92    1
   101    50    93    1
   102    51    94    1
   103    53    95    1
   104    55    96    1
   105    56    97    1
   106    58    98    1
   107    60    99    1
   108    61   100    1
   109    63   101    1
