@<TRIPOS>MOLECULE
Procyanidin trimer T2
 101 109 0 0 0
SMALL
GASTEIGER

@<TRIPOS>ATOM
      1 O           4.6613   -0.8439   -3.6313 O.3     1  UNL1       -0.3875
      2 C           4.2118    0.1964   -2.8016 C.3     1  UNL1        0.1004
      3 C           5.3490    0.6870   -1.8960 C.3     1  UNL1        0.0092
      4 C           4.8572    1.6845   -0.8741 C.ar    1  UNL1        0.0387
      5 C           5.7493    2.6054   -0.3029 C.ar    1  UNL1        0.1271
      6 O           7.0817    2.6418   -0.7150 O.3     1  UNL1       -0.5063
      7 C           5.3013    3.4898    0.6800 C.ar    1  UNL1        0.0221
      8 C           3.9820    3.4380    1.1404 C.ar    1  UNL1        0.1277
      9 O           3.5658    4.3384    2.1224 O.3     1  UNL1       -0.5062
     10 C           3.0809    2.4817    0.6216 C.ar    1  UNL1        0.0463
     11 C           1.6667    2.4045    1.2080 C.3     1  UNL1        0.0528
     12 C           0.6885    3.3698    0.4836 C.3     1  UNL1        0.1074
     13 O          -0.3015    3.8297    1.3744 O.3     1  UNL1       -0.3868
     14 C           0.0531    2.6971   -0.7483 C.3     1  UNL1        0.1519
     15 O          -0.5515    1.4605   -0.3771 O.3     1  UNL1       -0.4808
     16 C           0.0385    0.5637    0.5226 C.ar    1  UNL1        0.1361
     17 C          -0.4893   -0.7429    0.6471 C.ar    1  UNL1        0.0463
     18 C          -1.7787   -1.0853   -0.1126 C.3     1  UNL1        0.0528
     19 C          -3.0298   -0.6416    0.6910 C.3     1  UNL1        0.1074
     20 O          -4.1229   -0.4942   -0.1821 O.3     1  UNL1       -0.3868
     21 C          -3.3723   -1.6853    1.7683 C.3     1  UNL1        0.1518
     22 O          -3.5455   -2.9699    1.1699 O.3     1  UNL1       -0.4811
     23 C          -2.7466   -3.4204    0.1126 C.ar    1  UNL1        0.1323
     24 C          -2.8389   -4.7578   -0.2806 C.ar    1  UNL1        0.0221
     25 C          -2.0468   -5.2434   -1.3255 C.ar    1  UNL1        0.1238
     26 O          -2.1262   -6.5785   -1.7154 O.3     1  UNL1       -0.5065
     27 C          -1.1668   -4.3844   -1.9862 C.ar    1  UNL1        0.0218
     28 C          -1.0695   -3.0387   -1.6169 C.ar    1  UNL1        0.1276
     29 O          -0.1804   -2.2294   -2.3252 O.3     1  UNL1       -0.5062
     30 C          -1.8645   -2.5396   -0.5560 C.ar    1  UNL1        0.0461
     31 C          -4.6080   -1.2894    2.5443 C.ar    1  UNL1       -0.0012
     32 C          -5.8924   -1.6400    2.0908 C.ar    1  UNL1       -0.0098
     33 C          -7.0334   -1.2334    2.7978 C.ar    1  UNL1        0.1586
     34 O          -8.3022   -1.5921    2.3453 O.3     1  UNL1       -0.5033
     35 C          -6.8941   -0.4602    3.9626 C.ar    1  UNL1        0.1582
     36 O          -8.0089   -0.0419    4.6884 O.3     1  UNL1       -0.5033
     37 C          -5.6188   -0.0968    4.4059 C.ar    1  UNL1       -0.0162
     38 C          -4.4834   -0.5018    3.7002 C.ar    1  UNL1       -0.0513
     39 C           0.1387   -1.6440    1.5443 C.ar    1  UNL1        0.1277
     40 O          -0.3294   -2.9470    1.7051 O.3     1  UNL1       -0.5062
     41 C           1.2472   -1.2336    2.2917 C.ar    1  UNL1        0.0221
     42 C           1.7416    0.0668    2.1874 C.ar    1  UNL1        0.1277
     43 O           2.8393    0.4559    2.9556 O.3     1  UNL1       -0.5062
     44 C           1.1373    0.9789    1.3072 C.ar    1  UNL1        0.0463
     45 C          -0.9613    3.5998   -1.4125 C.ar    1  UNL1       -0.0012
     46 C          -0.5448    4.5162   -2.3922 C.ar    1  UNL1       -0.0098
     47 C          -1.4673    5.3821   -2.9971 C.ar    1  UNL1        0.1586
     48 O          -1.0457    6.2826   -3.9742 O.3     1  UNL1       -0.5033
     49 C          -2.8185    5.3411   -2.6137 C.ar    1  UNL1        0.1582
     50 O          -3.7602    6.1877   -3.1977 O.3     1  UNL1       -0.5033
     51 C          -3.2331    4.4405   -1.6278 C.ar    1  UNL1       -0.0162
     52 C          -2.3131    3.5794   -1.0252 C.ar    1  UNL1       -0.0513
     53 C           3.5204    1.6299   -0.4235 C.ar    1  UNL1        0.1355
     54 O           2.6262    0.7272   -1.0169 O.3     1  UNL1       -0.4808
     55 C           3.0015   -0.2694   -1.9700 C.3     1  UNL1        0.1513
     56 C           3.2140   -1.6105   -1.2886 C.ar    1  UNL1       -0.0012
     57 C           2.8350   -2.7907   -1.9491 C.ar    1  UNL1       -0.0098
     58 C           2.9568   -4.0392   -1.3279 C.ar    1  UNL1        0.1586
     59 O           2.5296   -5.1640   -2.0364 O.3     1  UNL1       -0.5033
     60 C           3.4971   -4.1174   -0.0233 C.ar    1  UNL1        0.1582
     61 O           3.6418   -5.3245    0.6631 O.3     1  UNL1       -0.5033
     62 C           3.9099   -2.9459    0.6191 C.ar    1  UNL1       -0.0162
     63 C           3.7768   -1.7051   -0.0052 C.ar    1  UNL1       -0.0513
     64 H           5.2396   -0.4292   -4.3237 H       1  UNL1        0.2100
     65 H           3.8742    1.0528   -3.4326 H       1  UNL1        0.0637
     66 H           5.8114   -0.1731   -1.3661 H       1  UNL1        0.0342
     67 H           6.1288    1.1500   -2.5389 H       1  UNL1        0.0342
     68 H           7.7440    3.2976   -0.3174 H       1  UNL1        0.2921
     69 H           5.9877    4.2140    1.1006 H       1  UNL1        0.0691
     70 H           4.1937    5.0326    2.5106 H       1  UNL1        0.2921
     71 H           1.7226    2.7592    2.2613 H       1  UNL1        0.0429
     72 H           1.2533    4.2641    0.1379 H       1  UNL1        0.0643
     73 H          -0.7989    3.0404    1.7135 H       1  UNL1        0.2100
     74 H           0.8560    2.4753   -1.4834 H       1  UNL1        0.0811
     75 H          -1.8026   -0.4861   -1.0477 H       1  UNL1        0.0429
     76 H          -2.8273    0.3337    1.1964 H       1  UNL1        0.0643
     77 H          -4.0195    0.3872   -0.6276 H       1  UNL1        0.2100
     78 H          -2.5220   -1.7548    2.4802 H       1  UNL1        0.0811
     79 H          -3.5219   -5.4214    0.2348 H       1  UNL1        0.0691
     80 H          -2.7542   -7.2279   -1.2563 H       1  UNL1        0.2921
     81 H          -0.5545   -4.7640   -2.7949 H       1  UNL1        0.0691
     82 H          -0.0192   -1.2557   -2.1087 H       1  UNL1        0.2921
     83 H          -6.0094   -2.2245    1.1865 H       1  UNL1        0.0659
     84 H          -8.4297   -2.1481    1.5078 H       1  UNL1        0.2923
     85 H          -8.9532   -0.2783    4.4080 H       1  UNL1        0.2923
     86 H          -5.5078    0.5054    5.2988 H       1  UNL1        0.0655
     87 H          -3.5055   -0.1990    4.0543 H       1  UNL1        0.0623
     88 H           0.1131   -3.6015    2.3396 H       1  UNL1        0.2921
     89 H           1.7236   -1.9310    2.9694 H       1  UNL1        0.0691
     90 H           3.2996   -0.1865    3.5898 H       1  UNL1        0.2921
     91 H           0.4973    4.5582   -2.6850 H       1  UNL1        0.0659
     92 H          -0.0771    6.3324   -4.2678 H       1  UNL1        0.2923
     93 H          -3.5097    6.8575   -3.9151 H       1  UNL1        0.2923
     94 H          -4.2721    4.4106   -1.3248 H       1  UNL1        0.0655
     95 H          -2.6572    2.8994   -0.2558 H       1  UNL1        0.0623
     96 H           2.1466   -0.3726   -2.6722 H       1  UNL1        0.0811
     97 H           2.4243   -2.7414   -2.9502 H       1  UNL1        0.0659
     98 H           2.5699   -6.1067   -1.6769 H       1  UNL1        0.2923
     99 H           3.3699   -6.2223    0.2895 H       1  UNL1        0.2923
    100 H           4.3299   -2.9969    1.6158 H       1  UNL1        0.0655
    101 H           4.1017   -0.8233    0.5277 H       1  UNL1        0.0623
@<TRIPOS>BOND
     1     1     2    1
     2     2     3    1
     3     3     4    1
     4     4     5   ar
     5     5     6    1
     6     5     7   ar
     7     7     8   ar
     8     8     9    1
     9     8    10   ar
    10    10    11    1
    11    11    12    1
    12    12    13    1
    13    12    14    1
    14    14    15    1
    15    15    16    1
    16    16    17   ar
    17    17    18    1
    18    18    19    1
    19    19    20    1
    20    19    21    1
    21    21    22    1
    22    22    23    1
    23    23    24   ar
    24    24    25   ar
    25    25    26    1
    26    25    27   ar
    27    27    28   ar
    28    28    29    1
    29    28    30   ar
    30    21    31    1
    31    31    32   ar
    32    32    33   ar
    33    33    34    1
    34    33    35   ar
    35    35    36    1
    36    35    37   ar
    37    37    38   ar
    38    17    39   ar
    39    39    40    1
    40    39    41   ar
    41    41    42   ar
    42    42    43    1
    43    42    44   ar
    44    14    45    1
    45    45    46   ar
    46    46    47   ar
    47    47    48    1
    48    47    49   ar
    49    49    50    1
    50    49    51   ar
    51    51    52   ar
    52    10    53   ar
    53    53    54    1
    54    54    55    1
    55    55    56    1
    56    56    57   ar
    57    57    58   ar
    58    58    59    1
    59    58    60   ar
    60    60    61    1
    61    60    62   ar
    62    62    63   ar
    63    55     2    1
    64    63    56   ar
    65    53     4   ar
    66    44    11    1
    67    52    45   ar
    68    44    16   ar
    69    30    18    1
    70    38    31   ar
    71    30    23   ar
    72     1    64    1
    73     2    65    1
    74     3    66    1
    75     3    67    1
    76     6    68    1
    77     7    69    1
    78     9    70    1
    79    11    71    1
    80    12    72    1
    81    13    73    1
    82    14    74    1
    83    18    75    1
    84    19    76    1
    85    20    77    1
    86    21    78    1
    87    24    79    1
    88    26    80    1
    89    27    81    1
    90    29    82    1
    91    32    83    1
    92    34    84    1
    93    36    85    1
    94    37    86    1
    95    38    87    1
    96    40    88    1
    97    41    89    1
    98    43    90    1
    99    46    91    1
   100    48    92    1
   101    50    93    1
   102    51    94    1
   103    52    95    1
   104    55    96    1
   105    57    97    1
   106    59    98    1
   107    61    99    1
   108    62   100    1
   109    63   101    1
