@<TRIPOS>MOLECULE
Procyanidin trimer C2
 101 109 0 0 0
SMALL
GASTEIGER

@<TRIPOS>ATOM
      1 C           6.1469    2.7178    0.4916 C.3     1  UNL1        0.1004
      2 O           5.6517    3.9640    0.9121 O.3     1  UNL1       -0.3875
      3 C           6.2119    1.7523    1.6882 C.3     1  UNL1        0.0092
      4 C           4.8415    1.2962    2.1434 C.ar    1  UNL1        0.0387
      5 C           3.7506    1.3662    1.2472 C.ar    1  UNL1        0.1355
      6 O           3.9449    1.8359   -0.0613 O.3     1  UNL1       -0.4808
      7 C           5.2249    2.1619   -0.6061 C.3     1  UNL1        0.1513
      8 C           5.8472    0.9799   -1.3293 C.ar    1  UNL1       -0.0012
      9 C           5.5463   -0.3515   -0.9830 C.ar    1  UNL1       -0.0513
     10 C           6.1562   -1.4133   -1.6556 C.ar    1  UNL1       -0.0162
     11 C           7.0817   -1.1651   -2.6765 C.ar    1  UNL1        0.1582
     12 O           7.6915   -2.2224   -3.3492 O.3     1  UNL1       -0.5033
     13 C           7.3985    0.1536   -3.0225 C.ar    1  UNL1        0.1586
     14 O           8.3240    0.3983   -4.0355 O.3     1  UNL1       -0.5033
     15 C           6.7856    1.2194   -2.3487 C.ar    1  UNL1       -0.0098
     16 C           2.4612    0.9589    1.6522 C.ar    1  UNL1        0.0463
     17 C           2.2877    0.4192    2.9457 C.ar    1  UNL1        0.1277
     18 O           1.0331   -0.0272    3.3638 O.3     1  UNL1       -0.5062
     19 C           3.3774    0.3155    3.8143 C.ar    1  UNL1        0.0221
     20 C           4.6506    0.7290    3.4226 C.ar    1  UNL1        0.1271
     21 O           5.7025    0.5440    4.3233 O.3     1  UNL1       -0.5063
     22 C           1.2905    1.0358    0.6724 C.3     1  UNL1        0.0528
     23 C           0.0647    1.7094    1.2925 C.ar    1  UNL1        0.0463
     24 C          -1.2104    1.1249    1.1508 C.ar    1  UNL1        0.1361
     25 O          -1.3580   -0.0209    0.3646 O.3     1  UNL1       -0.4808
     26 C          -0.3672   -0.4263   -0.5684 C.3     1  UNL1        0.1519
     27 C          -0.7126   -1.8036   -1.0828 C.ar    1  UNL1       -0.0012
     28 C          -0.8476   -2.0303   -2.4622 C.ar    1  UNL1       -0.0513
     29 C          -1.1843   -3.2993   -2.9397 C.ar    1  UNL1       -0.0162
     30 C          -1.3827   -4.3599   -2.0463 C.ar    1  UNL1        0.1582
     31 O          -1.7150   -5.6282   -2.5191 O.3     1  UNL1       -0.5033
     32 C          -1.2438   -4.1462   -0.6695 C.ar    1  UNL1        0.1586
     33 O          -1.4267   -5.2073    0.2148 O.3     1  UNL1       -0.5033
     34 C          -0.9178   -2.8699   -0.1895 C.ar    1  UNL1       -0.0098
     35 C           1.0088   -0.3846    0.1133 C.3     1  UNL1        0.1074
     36 O           2.0141   -0.7227   -0.8100 O.3     1  UNL1       -0.3868
     37 C          -2.3455    1.6844    1.7846 C.ar    1  UNL1        0.0463
     38 C          -2.2086    2.9384    2.4347 C.ar    1  UNL1        0.1277
     39 O          -3.2869    3.6348    2.9880 O.3     1  UNL1       -0.5062
     40 C          -0.9527    3.5433    2.5181 C.ar    1  UNL1        0.0221
     41 C           0.1768    2.9490    1.9500 C.ar    1  UNL1        0.1277
     42 O           1.4092    3.5986    2.0260 O.3     1  UNL1       -0.5062
     43 C          -3.6832    0.9401    1.7203 C.3     1  UNL1        0.0528
     44 C          -3.5323   -0.5278    2.1248 C.ar    1  UNL1        0.0461
     45 C          -4.1502   -1.5374    1.3577 C.ar    1  UNL1        0.1323
     46 O          -4.9467   -1.2074    0.2613 O.3     1  UNL1       -0.4811
     47 C          -5.4297    0.1167    0.0540 C.3     1  UNL1        0.1518
     48 C          -5.9635    0.2394   -1.3543 C.ar    1  UNL1       -0.0012
     49 C          -5.2284   -0.2645   -2.4414 C.ar    1  UNL1       -0.0513
     50 C          -5.7099   -0.1239   -3.7448 C.ar    1  UNL1       -0.0162
     51 C          -6.9268    0.5292   -3.9823 C.ar    1  UNL1        0.1582
     52 O          -7.4053    0.6675   -5.2842 O.3     1  UNL1       -0.5033
     53 C          -7.6620    1.0467   -2.9021 C.ar    1  UNL1        0.1586
     54 O          -8.8734    1.7068   -3.1058 O.3     1  UNL1       -0.5033
     55 C          -7.1770    0.9037   -1.5970 C.ar    1  UNL1       -0.0098
     56 C          -4.3022    1.1303    0.3058 C.3     1  UNL1        0.1074
     57 O          -4.8169    2.4327    0.1838 O.3     1  UNL1       -0.3868
     58 C          -3.9819   -2.8839    1.6915 C.ar    1  UNL1        0.0221
     59 C          -3.2554   -3.2435    2.8273 C.ar    1  UNL1        0.1238
     60 O          -3.1172   -4.5896    3.1577 O.3     1  UNL1       -0.5065
     61 C          -2.6871   -2.2501    3.6314 C.ar    1  UNL1        0.0218
     62 C          -2.8347   -0.8964    3.2988 C.ar    1  UNL1        0.1276
     63 O          -2.2951    0.0799    4.1364 O.3     1  UNL1       -0.5062
     64 H           7.1726    2.8507    0.0730 H       1  UNL1        0.0637
     65 H           6.3954    4.4277    1.3789 H       1  UNL1        0.2100
     66 H           6.8128    0.8589    1.4134 H       1  UNL1        0.0342
     67 H           6.7372    2.2771    2.5139 H       1  UNL1        0.0342
     68 H           5.0612    2.9654   -1.3578 H       1  UNL1        0.0811
     69 H           4.8437   -0.5812   -0.1957 H       1  UNL1        0.0623
     70 H           5.9100   -2.4309   -1.3798 H       1  UNL1        0.0655
     71 H           7.4825   -3.1872   -3.1202 H       1  UNL1        0.2923
     72 H           8.5746    1.3415   -4.3084 H       1  UNL1        0.2923
     73 H           7.0420    2.2367   -2.6189 H       1  UNL1        0.0659
     74 H           0.8863   -0.4224    4.2851 H       1  UNL1        0.2921
     75 H           3.2388   -0.1116    4.7999 H       1  UNL1        0.0691
     76 H           6.6706    0.7296    4.0978 H       1  UNL1        0.2921
     77 H           1.5558    1.6806   -0.1936 H       1  UNL1        0.0429
     78 H          -0.3665    0.3037   -1.4096 H       1  UNL1        0.0811
     79 H          -0.6972   -1.2248   -3.1700 H       1  UNL1        0.0623
     80 H          -1.2888   -3.4581   -4.0055 H       1  UNL1        0.0655
     81 H          -1.8218   -5.8133   -3.5096 H       1  UNL1        0.2923
     82 H          -1.3028   -5.0915    1.2133 H       1  UNL1        0.2923
     83 H          -0.8266   -2.7093    0.8777 H       1  UNL1        0.0659
     84 H           1.0056   -1.1116    0.9597 H       1  UNL1        0.0643
     85 H           2.0874   -1.7128   -0.8132 H       1  UNL1        0.2100
     86 H          -4.2571    3.3967    2.8428 H       1  UNL1        0.2921
     87 H          -0.8588    4.5008    3.0154 H       1  UNL1        0.0691
     88 H           1.5135    4.4918    2.4929 H       1  UNL1        0.2921
     89 H          -4.4013    1.3404    2.4602 H       1  UNL1        0.0429
     90 H          -6.2471    0.3020    0.7872 H       1  UNL1        0.0811
     91 H          -4.2808   -0.7642   -2.2794 H       1  UNL1        0.0623
     92 H          -5.1341   -0.5207   -4.5713 H       1  UNL1        0.0655
     93 H          -6.8930    0.3037   -6.0793 H       1  UNL1        0.2923
     94 H          -9.2666    1.8369   -4.0302 H       1  UNL1        0.2923
     95 H          -7.7478    1.3141   -0.7729 H       1  UNL1        0.0659
     96 H          -3.5238    0.9604   -0.4747 H       1  UNL1        0.0643
     97 H          -4.0529    3.0265   -0.0381 H       1  UNL1        0.2100
     98 H          -4.4396   -3.6514    1.0800 H       1  UNL1        0.0691
     99 H          -2.5969   -4.8836    3.9760 H       1  UNL1        0.2921
    100 H          -2.1385   -2.5292    4.5221 H       1  UNL1        0.0691
    101 H          -1.7892   -0.1621    4.9802 H       1  UNL1        0.2921
@<TRIPOS>BOND
     1     1     2    1
     2     1     3    1
     3     3     4    1
     4     4     5   ar
     5     5     6    1
     6     6     7    1
     7     7     8    1
     8     8     9   ar
     9     9    10   ar
    10    10    11   ar
    11    11    12    1
    12    11    13   ar
    13    13    14    1
    14    13    15   ar
    15     5    16   ar
    16    16    17   ar
    17    17    18    1
    18    17    19   ar
    19    19    20   ar
    20    20    21    1
    21    16    22    1
    22    22    23    1
    23    23    24   ar
    24    24    25    1
    25    25    26    1
    26    26    27    1
    27    27    28   ar
    28    28    29   ar
    29    29    30   ar
    30    30    31    1
    31    30    32   ar
    32    32    33    1
    33    32    34   ar
    34    26    35    1
    35    35    36    1
    36    24    37   ar
    37    37    38   ar
    38    38    39    1
    39    38    40   ar
    40    40    41   ar
    41    41    42    1
    42    37    43    1
    43    43    44    1
    44    44    45   ar
    45    45    46    1
    46    46    47    1
    47    47    48    1
    48    48    49   ar
    49    49    50   ar
    50    50    51   ar
    51    51    52    1
    52    51    53   ar
    53    53    54    1
    54    53    55   ar
    55    47    56    1
    56    56    57    1
    57    45    58   ar
    58    58    59   ar
    59    59    60    1
    60    59    61   ar
    61    61    62   ar
    62    62    63    1
    63     7     1    1
    64    15     8   ar
    65    35    22    1
    66    56    43    1
    67    20     4   ar
    68    41    23   ar
    69    62    44   ar
    70    34    27   ar
    71    55    48   ar
    72     1    64    1
    73     2    65    1
    74     3    66    1
    75     3    67    1
    76     7    68    1
    77     9    69    1
    78    10    70    1
    79    12    71    1
    80    14    72    1
    81    15    73    1
    82    18    74    1
    83    19    75    1
    84    21    76    1
    85    22    77    1
    86    26    78    1
    87    28    79    1
    88    29    80    1
    89    31    81    1
    90    33    82    1
    91    34    83    1
    92    35    84    1
    93    36    85    1
    94    39    86    1
    95    40    87    1
    96    42    88    1
    97    43    89    1
    98    47    90    1
    99    49    91    1
   100    50    92    1
   101    52    93    1
   102    54    94    1
   103    55    95    1
   104    56    96    1
   105    57    97    1
   106    58    98    1
   107    60    99    1
   108    61   100    1
   109    63   101    1
