@<TRIPOS>MOLECULE
(-)-Epicatechin-(2a-7)(4a-8)-epicatechin 3-O-galactoside
 85 92 0 0 0
SMALL
GASTEIGER

@<TRIPOS>ATOM
      1 C          -2.3651    2.0753    1.7491 C.3     1  UNL1        0.1130
      2 C          -3.0744    2.9789    2.7745 C.3     1  UNL1        0.0730
      3 O          -3.1076    4.3044    2.3210 O.3     1  UNL1       -0.3924
      4 O          -1.9999    0.8512    2.3887 O.3     1  UNL1       -0.3405
      5 C          -2.6924   -0.3116    1.9422 C.3     1  UNL1        0.1886
      6 O          -2.1022   -0.8310    0.7645 O.3     1  UNL1       -0.3364
      7 C          -0.7702   -1.2717    0.9891 C.3     1  UNL1        0.1542
      8 C           0.2146   -0.3437    0.2435 C.3     1  UNL1        0.0571
      9 C          -0.1264   -0.3302   -1.2393 C.ar    1  UNL1        0.0464
     10 C          -0.5493   -1.5483   -1.8197 C.ar    1  UNL1        0.1365
     11 O          -0.8204   -2.6657   -1.0154 O.3     1  UNL1       -0.4444
     12 C          -0.5896   -2.6905    0.4006 C.3     1  UNL1        0.3078
     13 O           0.7569   -3.1241    0.6209 O.3     1  UNL1       -0.4445
     14 C           1.8469   -2.2481    0.5477 C.ar    1  UNL1        0.1331
     15 C           1.6352   -0.8598    0.4118 C.ar    1  UNL1        0.0467
     16 C           2.7459    0.0019    0.3358 C.ar    1  UNL1        0.1319
     17 C           4.0529   -0.5212    0.4089 C.ar    1  UNL1       -0.0050
     18 C           5.2437    0.3850    0.2340 C.3     1  UNL1       -0.0205
     19 C           4.9132    1.8337    0.6095 C.3     1  UNL1       -0.0074
     20 C           3.6119    2.3075   -0.0606 C.3     1  UNL1        0.1256
     21 O           2.5507    1.3807    0.1846 O.3     1  UNL1       -0.4835
     22 C           3.7958    2.5614   -1.5460 C.ar    1  UNL1       -0.0037
     23 C           4.3117    3.7961   -1.9722 C.ar    1  UNL1       -0.0099
     24 C           4.5038    4.0700   -3.3320 C.ar    1  UNL1        0.1586
     25 O           5.0164    5.3217   -3.6789 O.3     1  UNL1       -0.5033
     26 C           4.1784    3.0848   -4.2934 C.ar    1  UNL1        0.1582
     27 O           4.3348    3.2879   -5.6660 O.3     1  UNL1       -0.5033
     28 C           3.6790    1.8499   -3.8681 C.ar    1  UNL1       -0.0162
     29 C           3.4956    1.5837   -2.5107 C.ar    1  UNL1       -0.0514
     30 C           4.2420   -1.9027    0.5464 C.ar    1  UNL1       -0.0516
     31 C           3.1436   -2.7589    0.6274 C.ar    1  UNL1       -0.0190
     32 C          -1.5504   -3.6555    1.0707 C.ar    1  UNL1        0.0424
     33 C          -1.2279   -4.2264    2.3162 C.ar    1  UNL1       -0.0059
     34 C          -2.1409   -5.0588    2.9789 C.ar    1  UNL1        0.1587
     35 O          -1.8116   -5.6303    4.2067 O.3     1  UNL1       -0.5033
     36 C          -3.3937   -5.3143    2.4092 C.ar    1  UNL1        0.1582
     37 O          -4.2986   -6.1424    3.0709 O.3     1  UNL1       -0.5033
     38 C          -3.7323   -4.7313    1.1822 C.ar    1  UNL1       -0.0160
     39 C          -2.8232   -3.9017    0.5218 C.ar    1  UNL1       -0.0475
     40 C          -0.7405   -1.6446   -3.1993 C.ar    1  UNL1        0.0222
     41 C          -0.5253   -0.5374   -4.0198 C.ar    1  UNL1        0.1238
     42 O          -0.7041   -0.6569   -5.3961 O.3     1  UNL1       -0.5065
     43 C          -0.1445    0.6838   -3.4538 C.ar    1  UNL1        0.0218
     44 C           0.0321    0.8090   -2.0711 C.ar    1  UNL1        0.1276
     45 O           0.3386    2.0785   -1.5767 O.3     1  UNL1       -0.5062
     46 C          -4.1916   -0.0499    1.6987 C.3     1  UNL1        0.1341
     47 O          -4.8387   -1.2413    1.3295 O.3     1  UNL1       -0.3841
     48 C          -4.4022    1.0116    0.5948 C.3     1  UNL1        0.1141
     49 O          -5.5274    1.7978    0.8972 O.3     1  UNL1       -0.3864
     50 C          -3.1548    1.9088    0.4196 C.3     1  UNL1        0.1119
     51 O          -3.5010    3.1617   -0.1147 O.3     1  UNL1       -0.3865
     52 H          -1.4127    2.5863    1.4864 H       1  UNL1        0.0647
     53 H          -4.1068    2.6190    2.9697 H       1  UNL1        0.0584
     54 H          -2.5120    2.9414    3.7344 H       1  UNL1        0.0584
     55 H          -3.5828    4.8238    3.0206 H       1  UNL1        0.2095
     56 H          -2.6376   -1.0733    2.7541 H       1  UNL1        0.0938
     57 H          -0.4830   -1.3010    2.0703 H       1  UNL1        0.0689
     58 H           0.1214    0.6562    0.7055 H       1  UNL1        0.0430
     59 H           5.5761    0.3409   -0.8253 H       1  UNL1        0.0316
     60 H           6.0852    0.0354    0.8710 H       1  UNL1        0.0316
     61 H           5.7593    2.4980    0.3281 H       1  UNL1        0.0307
     62 H           4.7892    1.8967    1.7130 H       1  UNL1        0.0307
     63 H           3.3173    3.2682    0.4157 H       1  UNL1        0.0784
     64 H           4.5661    4.5552   -1.2420 H       1  UNL1        0.0659
     65 H           5.1975    5.6143   -4.6282 H       1  UNL1        0.2923
     66 H           4.6805    4.1444   -6.0742 H       1  UNL1        0.2923
     67 H           3.4309    1.0885   -4.5970 H       1  UNL1        0.0655
     68 H           3.1132    0.6143   -2.2265 H       1  UNL1        0.0623
     69 H           5.2418   -2.3175    0.5828 H       1  UNL1        0.0623
     70 H           3.2998   -3.8246    0.7356 H       1  UNL1        0.0654
     71 H          -0.2717   -4.0174    2.7796 H       1  UNL1        0.0660
     72 H          -0.9138   -5.4630    4.6458 H       1  UNL1        0.2923
     73 H          -5.2135   -6.3434    2.6845 H       1  UNL1        0.2923
     74 H          -4.7052   -4.9126    0.7432 H       1  UNL1        0.0655
     75 H          -3.1224   -3.4418   -0.4115 H       1  UNL1        0.0624
     76 H          -1.0593   -2.5837   -3.6341 H       1  UNL1        0.0691
     77 H          -0.5584    0.1287   -6.0194 H       1  UNL1        0.2921
     78 H          -0.0012    1.5487   -4.0896 H       1  UNL1        0.0691
     79 H           0.3335    2.3217   -0.5975 H       1  UNL1        0.2921
     80 H          -4.6317    0.3242    2.6529 H       1  UNL1        0.0671
     81 H          -4.9076   -1.7989    2.1482 H       1  UNL1        0.2101
     82 H          -4.5703    0.5009   -0.3835 H       1  UNL1        0.0648
     83 H          -6.3250    1.2272    0.7418 H       1  UNL1        0.2100
     84 H          -2.4637    1.4098   -0.2993 H       1  UNL1        0.0647
     85 H          -3.7706    3.0067   -1.0578 H       1  UNL1        0.2100
@<TRIPOS>BOND
     1     1     2    1
     2     2     3    1
     3     1     4    1
     4     4     5    1
     5     5     6    1
     6     6     7    1
     7     7     8    1
     8     8     9    1
     9     9    10   ar
    10    10    11    1
    11    11    12    1
    12    12    13    1
    13    13    14    1
    14    14    15   ar
    15    15    16   ar
    16    16    17   ar
    17    17    18    1
    18    18    19    1
    19    19    20    1
    20    20    21    1
    21    20    22    1
    22    22    23   ar
    23    23    24   ar
    24    24    25    1
    25    24    26   ar
    26    26    27    1
    27    26    28   ar
    28    28    29   ar
    29    17    30   ar
    30    30    31   ar
    31    12    32    1
    32    32    33   ar
    33    33    34   ar
    34    34    35    1
    35    34    36   ar
    36    36    37    1
    37    36    38   ar
    38    38    39   ar
    39    10    40   ar
    40    40    41   ar
    41    41    42    1
    42    41    43   ar
    43    43    44   ar
    44    44    45    1
    45     5    46    1
    46    46    47    1
    47    46    48    1
    48    48    49    1
    49    48    50    1
    50    50    51    1
    51    50     1    1
    52    12     7    1
    53    31    14   ar
    54    39    32   ar
    55    15     8    1
    56    21    16    1
    57    29    22   ar
    58    44     9   ar
    59     1    52    1
    60     2    53    1
    61     2    54    1
    62     3    55    1
    63     5    56    1
    64     7    57    1
    65     8    58    1
    66    18    59    1
    67    18    60    1
    68    19    61    1
    69    19    62    1
    70    20    63    1
    71    23    64    1
    72    25    65    1
    73    27    66    1
    74    28    67    1
    75    29    68    1
    76    30    69    1
    77    31    70    1
    78    33    71    1
    79    35    72    1
    80    37    73    1
    81    38    74    1
    82    39    75    1
    83    40    76    1
    84    42    77    1
    85    43    78    1
    86    45    79    1
    87    46    80    1
    88    47    81    1
    89    48    82    1
    90    49    83    1
    91    50    84    1
    92    51    85    1
