@<TRIPOS>MOLECULE
Cinnamtannin A2
 134 145 0 0 0
SMALL
GASTEIGER

@<TRIPOS>ATOM
      1 O           9.9117   -0.5675    2.2927 O.3     1  UNL1       -0.3875
      2 C           8.6289   -0.0218    2.4644 C.3     1  UNL1        0.1004
      3 C           7.9628   -0.6046    3.7212 C.3     1  UNL1        0.0092
      4 C           6.5051   -0.2119    3.8342 C.ar    1  UNL1        0.0387
      5 C           5.8263   -0.2851    5.0703 C.ar    1  UNL1        0.1271
      6 O           6.4412   -0.7537    6.2340 O.3     1  UNL1       -0.5063
      7 C           4.4916    0.1111    5.1524 C.ar    1  UNL1        0.0221
      8 C           3.7951    0.5347    4.0173 C.ar    1  UNL1        0.1277
      9 O           2.4638    0.9346    4.1397 O.3     1  UNL1       -0.5062
     10 C           4.4330    0.5450    2.7574 C.ar    1  UNL1        0.0463
     11 C           3.6827    0.9899    1.5004 C.3     1  UNL1        0.0528
     12 C           3.5364    2.5329    1.5214 C.3     1  UNL1        0.1074
     13 O           4.7913    3.1473    1.3608 O.3     1  UNL1       -0.3868
     14 C           2.5721    3.0279    0.4315 C.3     1  UNL1        0.1519
     15 O           1.3272    2.3384    0.5291 O.3     1  UNL1       -0.4808
     16 C           1.2105    0.9865    0.8820 C.ar    1  UNL1        0.1361
     17 C          -0.0423    0.3460    0.7543 C.ar    1  UNL1        0.0463
     18 C          -1.2750    1.1514    0.3396 C.3     1  UNL1        0.0528
     19 C          -2.1451    1.4106    1.5975 C.3     1  UNL1        0.1074
     20 O          -1.4756    2.2080    2.5458 O.3     1  UNL1       -0.3868
     21 C          -3.5206    1.9990    1.2373 C.3     1  UNL1        0.1519
     22 O          -4.1598    1.1669    0.2705 O.3     1  UNL1       -0.4808
     23 C          -3.4802    0.5061   -0.7652 C.ar    1  UNL1        0.1361
     24 C          -4.2312   -0.1177   -1.7892 C.ar    1  UNL1        0.0463
     25 C          -5.7600   -0.1309   -1.6704 C.3     1  UNL1        0.0528
     26 C          -6.2476   -1.3195   -0.7998 C.3     1  UNL1        0.1074
     27 O          -7.5183   -1.0264   -0.2727 O.3     1  UNL1       -0.3868
     28 C          -6.3290   -2.6049   -1.6435 C.3     1  UNL1        0.1518
     29 O          -7.1687   -2.3946   -2.7800 O.3     1  UNL1       -0.4811
     30 C          -7.1599   -1.1964   -3.5030 C.ar    1  UNL1        0.1323
     31 C          -7.8394   -1.1291   -4.7223 C.ar    1  UNL1        0.0221
     32 C          -7.8293    0.0532   -5.4721 C.ar    1  UNL1        0.1238
     33 O          -8.4989    0.1256   -6.6915 O.3     1  UNL1       -0.5065
     34 C          -7.1398    1.1722   -4.9970 C.ar    1  UNL1        0.0218
     35 C          -6.4639    1.1221   -3.7700 C.ar    1  UNL1        0.1276
     36 O          -5.7769    2.2441   -3.3055 O.3     1  UNL1       -0.5062
     37 C          -6.4792   -0.0630   -3.0078 C.ar    1  UNL1        0.0461
     38 C          -6.8276   -3.7718   -0.8215 C.ar    1  UNL1       -0.0012
     39 C          -8.2031   -4.0291   -0.6883 C.ar    1  UNL1       -0.0513
     40 C          -8.6497   -5.0884    0.1055 C.ar    1  UNL1       -0.0162
     41 C          -7.7311   -5.8974    0.7876 C.ar    1  UNL1        0.1582
     42 O          -8.1799   -6.9541    1.5782 O.3     1  UNL1       -0.5033
     43 C          -6.3552   -5.6365    0.6743 C.ar    1  UNL1        0.1586
     44 O          -5.4159   -6.4177    1.3467 O.3     1  UNL1       -0.5033
     45 C          -5.9112   -4.5752   -0.1225 C.ar    1  UNL1       -0.0098
     46 C          -3.5390   -0.7381   -2.8578 C.ar    1  UNL1        0.1277
     47 O          -4.2241   -1.4129   -3.8672 O.3     1  UNL1       -0.5062
     48 C          -2.1451   -0.6687   -2.9229 C.ar    1  UNL1        0.0221
     49 C          -1.4090   -0.0393   -1.9186 C.ar    1  UNL1        0.1277
     50 O          -0.0237    0.0615   -2.0468 O.3     1  UNL1       -0.5062
     51 C          -2.0655    0.4910   -0.7895 C.ar    1  UNL1        0.0463
     52 C          -3.4623    3.4481    0.7771 C.ar    1  UNL1       -0.0012
     53 C          -3.2741    3.7978   -0.5738 C.ar    1  UNL1       -0.0513
     54 C          -3.1984    5.1394   -0.9551 C.ar    1  UNL1       -0.0162
     55 C          -3.3031    6.1542   -0.0006 C.ar    1  UNL1        0.1582
     56 O          -3.2226    7.4840   -0.4128 O.3     1  UNL1       -0.5033
     57 C          -3.4852    5.8220    1.3512 C.ar    1  UNL1        0.1586
     58 O          -3.5865    6.8288    2.3101 O.3     1  UNL1       -0.5033
     59 C          -3.5627    4.4752    1.7329 C.ar    1  UNL1       -0.0098
     60 C          -0.1401   -1.0329    1.0428 C.ar    1  UNL1        0.1277
     61 O          -1.3694   -1.6885    0.9613 O.3     1  UNL1       -0.5062
     62 C           1.0011   -1.7569    1.3952 C.ar    1  UNL1        0.0221
     63 C           2.2406   -1.1245    1.5168 C.ar    1  UNL1        0.1277
     64 O           3.3701   -1.8860    1.8167 O.3     1  UNL1       -0.5062
     65 C           2.3440    0.2710    1.3324 C.ar    1  UNL1        0.0463
     66 C           3.1559    2.9403   -0.9712 C.ar    1  UNL1       -0.0012
     67 C           3.8690    4.0369   -1.4861 C.ar    1  UNL1       -0.0513
     68 C           4.4382    3.9813   -2.7603 C.ar    1  UNL1       -0.0162
     69 C           4.3109    2.8262   -3.5412 C.ar    1  UNL1        0.1582
     70 O           4.8792    2.7733   -4.8130 O.3     1  UNL1       -0.5033
     71 C           3.6098    1.7197   -3.0359 C.ar    1  UNL1        0.1586
     72 O           3.4687    0.5525   -3.7860 O.3     1  UNL1       -0.5033
     73 C           3.0413    1.7785   -1.7589 C.ar    1  UNL1       -0.0098
     74 C           5.7932    0.1732    2.6749 C.ar    1  UNL1        0.1355
     75 O           6.4361    0.1888    1.4271 O.3     1  UNL1       -0.4808
     76 C           7.7705   -0.2727    1.2119 C.3     1  UNL1        0.1513
     77 C           7.7855   -1.7238    0.7592 C.ar    1  UNL1       -0.0012
     78 C           8.7589   -2.1479   -0.1623 C.ar    1  UNL1       -0.0513
     79 C           8.8079   -3.4790   -0.5830 C.ar    1  UNL1       -0.0162
     80 C           7.8893   -4.4107   -0.0844 C.ar    1  UNL1        0.1582
     81 O           7.9340   -5.7396   -0.5020 O.3     1  UNL1       -0.5033
     82 C           6.9210   -4.0056    0.8415 C.ar    1  UNL1        0.1586
     83 O           6.0116   -4.9365    1.3406 O.3     1  UNL1       -0.5033
     84 C           6.8717   -2.6694    1.2633 C.ar    1  UNL1       -0.0098
     85 H          10.4933   -0.1561    2.9842 H       1  UNL1        0.2100
     86 H           8.7125    1.0837    2.5940 H       1  UNL1        0.0637
     87 H           8.5271   -0.2191    4.5967 H       1  UNL1        0.0342
     88 H           8.0405   -1.7130    3.7160 H       1  UNL1        0.0342
     89 H           7.3736   -1.1448    6.2540 H       1  UNL1        0.2921
     90 H           3.9863    0.0762    6.1097 H       1  UNL1        0.0691
     91 H           1.9847    0.9296    5.0325 H       1  UNL1        0.2921
     92 H           4.2682    0.7256    0.5947 H       1  UNL1        0.0429
     93 H           3.0913    2.8465    2.4955 H       1  UNL1        0.0643
     94 H           5.2243    3.1658    2.2539 H       1  UNL1        0.2100
     95 H           2.3549    4.0985    0.6423 H       1  UNL1        0.0811
     96 H          -0.9683    2.1370   -0.0695 H       1  UNL1        0.0429
     97 H          -2.3498    0.4326    2.0854 H       1  UNL1        0.0643
     98 H          -1.1275    3.0130    2.0818 H       1  UNL1        0.2100
     99 H          -4.1503    1.9584    2.1534 H       1  UNL1        0.0811
    100 H          -6.0663    0.7950   -1.1354 H       1  UNL1        0.0429
    101 H          -5.5308   -1.4922    0.0389 H       1  UNL1        0.0643
    102 H          -7.3762   -0.4247    0.5043 H       1  UNL1        0.2100
    103 H          -5.3109   -2.8509   -2.0144 H       1  UNL1        0.0811
    104 H          -8.3671   -2.0001   -5.0902 H       1  UNL1        0.0691
    105 H          -9.0074   -0.6677   -7.0645 H       1  UNL1        0.2921
    106 H          -7.1310    2.0829   -5.5828 H       1  UNL1        0.0691
    107 H          -5.7481    3.1072   -3.8354 H       1  UNL1        0.2921
    108 H          -8.9317   -3.4086   -1.1948 H       1  UNL1        0.0623
    109 H          -9.7120   -5.2772    0.1938 H       1  UNL1        0.0655
    110 H          -9.1669   -7.1613    1.6767 H       1  UNL1        0.2923
    111 H          -5.6861   -7.1959    1.9361 H       1  UNL1        0.2923
    112 H          -4.8486   -4.3759   -0.1939 H       1  UNL1        0.0659
    113 H          -3.7409   -1.8577   -4.6388 H       1  UNL1        0.2921
    114 H          -1.6273   -1.1073   -3.7669 H       1  UNL1        0.0691
    115 H           0.4677   -0.3120   -2.8504 H       1  UNL1        0.2921
    116 H          -3.1841    3.0455   -1.3422 H       1  UNL1        0.0623
    117 H          -3.0556    5.3916   -1.9983 H       1  UNL1        0.0655
    118 H          -3.2922    8.2549    0.2406 H       1  UNL1        0.2923
    119 H          -3.7171    6.6156    3.2921 H       1  UNL1        0.2923
    120 H          -3.6951    4.2285    2.7794 H       1  UNL1        0.0659
    121 H          -1.4607   -2.6786    1.1560 H       1  UNL1        0.2921
    122 H           0.9246   -2.8223    1.5729 H       1  UNL1        0.0691
    123 H           3.3176   -2.8886    1.9528 H       1  UNL1        0.2921
    124 H           3.9875    4.9386   -0.8979 H       1  UNL1        0.0623
    125 H           4.9811    4.8378   -3.1395 H       1  UNL1        0.0655
    126 H           5.3904    3.5586   -5.1989 H       1  UNL1        0.2923
    127 H           3.8613    0.4589   -4.7150 H       1  UNL1        0.2923
    128 H           2.5178    0.9088   -1.3943 H       1  UNL1        0.0659
    129 H           8.1914    0.3473    0.3898 H       1  UNL1        0.0811
    130 H           9.4835   -1.4457   -0.5560 H       1  UNL1        0.0623
    131 H           9.5626   -3.7861   -1.2959 H       1  UNL1        0.0655
    132 H           8.6240   -6.0621   -1.1705 H       1  UNL1        0.2923
    133 H           5.3012   -4.6757    2.0145 H       1  UNL1        0.2923
    134 H           6.1213   -2.3818    1.9841 H       1  UNL1        0.0659
@<TRIPOS>BOND
     1     1     2    1
     2     2     3    1
     3     3     4    1
     4     4     5   ar
     5     5     6    1
     6     5     7   ar
     7     7     8   ar
     8     8     9    1
     9     8    10   ar
    10    10    11    1
    11    11    12    1
    12    12    13    1
    13    12    14    1
    14    14    15    1
    15    15    16    1
    16    16    17   ar
    17    17    18    1
    18    18    19    1
    19    19    20    1
    20    19    21    1
    21    21    22    1
    22    22    23    1
    23    23    24   ar
    24    24    25    1
    25    25    26    1
    26    26    27    1
    27    26    28    1
    28    28    29    1
    29    29    30    1
    30    30    31   ar
    31    31    32   ar
    32    32    33    1
    33    32    34   ar
    34    34    35   ar
    35    35    36    1
    36    35    37   ar
    37    28    38    1
    38    38    39   ar
    39    39    40   ar
    40    40    41   ar
    41    41    42    1
    42    41    43   ar
    43    43    44    1
    44    43    45   ar
    45    24    46   ar
    46    46    47    1
    47    46    48   ar
    48    48    49   ar
    49    49    50    1
    50    49    51   ar
    51    21    52    1
    52    52    53   ar
    53    53    54   ar
    54    54    55   ar
    55    55    56    1
    56    55    57   ar
    57    57    58    1
    58    57    59   ar
    59    17    60   ar
    60    60    61    1
    61    60    62   ar
    62    62    63   ar
    63    63    64    1
    64    63    65   ar
    65    14    66    1
    66    66    67   ar
    67    67    68   ar
    68    68    69   ar
    69    69    70    1
    70    69    71   ar
    71    71    72    1
    72    71    73   ar
    73    10    74   ar
    74    74    75    1
    75    75    76    1
    76    76    77    1
    77    77    78   ar
    78    78    79   ar
    79    79    80   ar
    80    80    81    1
    81    80    82   ar
    82    82    83    1
    83    82    84   ar
    84    76     2    1
    85    84    77   ar
    86    74     4   ar
    87    65    11    1
    88    73    66   ar
    89    65    16   ar
    90    51    18    1
    91    59    52   ar
    92    51    23   ar
    93    37    25    1
    94    45    38   ar
    95    37    30   ar
    96     1    85    1
    97     2    86    1
    98     3    87    1
    99     3    88    1
   100     6    89    1
   101     7    90    1
   102     9    91    1
   103    11    92    1
   104    12    93    1
   105    13    94    1
   106    14    95    1
   107    18    96    1
   108    19    97    1
   109    20    98    1
   110    21    99    1
   111    25   100    1
   112    26   101    1
   113    27   102    1
   114    28   103    1
   115    31   104    1
   116    33   105    1
   117    34   106    1
   118    36   107    1
   119    39   108    1
   120    40   109    1
   121    42   110    1
   122    44   111    1
   123    45   112    1
   124    47   113    1
   125    48   114    1
   126    50   115    1
   127    53   116    1
   128    54   117    1
   129    56   118    1
   130    58   119    1
   131    59   120    1
   132    61   121    1
   133    62   122    1
   134    64   123    1
   135    67   124    1
   136    68   125    1
   137    70   126    1
   138    72   127    1
   139    73   128    1
   140    76   129    1
   141    78   130    1
   142    79   131    1
   143    81   132    1
   144    83   133    1
   145    84   134    1
