@<TRIPOS>MOLECULE
(+)-Catechin 3-O-glucose
 56 59 0 0 0
SMALL
GASTEIGER

@<TRIPOS>ATOM
      1 O           4.3768   -1.4463    0.1932 O.3     1  UNL1       -0.3924
      2 C           3.9304   -1.0600   -1.0776 C.3     1  UNL1        0.0730
      3 C           3.1157    0.2405   -1.0009 C.3     1  UNL1        0.1130
      4 O           2.1631    0.1535    0.0420 O.3     1  UNL1       -0.3405
      5 C           1.1290    1.1247   -0.1133 C.3     1  UNL1        0.1884
      6 O           0.1513    0.6559   -1.0253 O.3     1  UNL1       -0.3411
      7 C          -0.5740   -0.4449   -0.4974 C.3     1  UNL1        0.1069
      8 C          -0.4480   -1.6285   -1.4710 C.3     1  UNL1        0.0096
      9 C          -1.4079   -2.7533   -1.1440 C.ar    1  UNL1        0.0384
     10 C          -2.5546   -2.4801   -0.3663 C.ar    1  UNL1        0.1317
     11 O          -2.8087   -1.1850    0.0977 O.3     1  UNL1       -0.4811
     12 C          -2.0553   -0.0568   -0.3463 C.3     1  UNL1        0.1516
     13 C          -2.2159    1.0838    0.6306 C.ar    1  UNL1       -0.0012
     14 C          -2.1204    0.8585    2.0148 C.ar    1  UNL1       -0.0098
     15 C          -2.1986    1.9251    2.9172 C.ar    1  UNL1        0.1586
     16 O          -2.1025    1.6645    4.2837 O.3     1  UNL1       -0.5033
     17 C          -2.3668    3.2352    2.4379 C.ar    1  UNL1        0.1582
     18 O          -2.4438    4.3023    3.3315 O.3     1  UNL1       -0.5033
     19 C          -2.4526    3.4643    1.0583 C.ar    1  UNL1       -0.0162
     20 C          -2.3727    2.3975    0.1602 C.ar    1  UNL1       -0.0513
     21 C          -3.4424   -3.5068   -0.0348 C.ar    1  UNL1        0.0221
     22 C          -3.2201   -4.8080   -0.4970 C.ar    1  UNL1        0.1238
     23 O          -4.0993   -5.8377   -0.1693 O.3     1  UNL1       -0.5065
     24 C          -2.1109   -5.0786   -1.3017 C.ar    1  UNL1        0.0218
     25 C          -1.2115   -4.0624   -1.6448 C.ar    1  UNL1        0.1270
     26 O          -0.1464   -4.3853   -2.4887 O.3     1  UNL1       -0.5063
     27 C           1.6503    2.5145   -0.5945 C.3     1  UNL1        0.1341
     28 O           0.8670    3.5688   -0.0897 O.3     1  UNL1       -0.3841
     29 C           3.1490    2.7080   -0.2652 C.3     1  UNL1        0.1141
     30 O           3.3510    2.9036    1.1156 O.3     1  UNL1       -0.3864
     31 C           3.9887    1.5184   -0.8202 C.3     1  UNL1        0.1119
     32 O           5.1377    1.2924   -0.0382 O.3     1  UNL1       -0.3865
     33 H           4.9007   -2.2785    0.0599 H       1  UNL1        0.2095
     34 H           3.2817   -1.8635   -1.4936 H       1  UNL1        0.0584
     35 H           4.7963   -0.9224   -1.7638 H       1  UNL1        0.0584
     36 H           2.5950    0.3167   -1.9864 H       1  UNL1        0.0647
     37 H           0.6716    1.2768    0.8913 H       1  UNL1        0.0938
     38 H          -0.2032   -0.7988    0.4973 H       1  UNL1        0.0641
     39 H          -0.6450   -1.2847   -2.5099 H       1  UNL1        0.0342
     40 H           0.5998   -1.9921   -1.4127 H       1  UNL1        0.0342
     41 H          -2.4496    0.2450   -1.3431 H       1  UNL1        0.0811
     42 H          -1.9728   -0.1454    2.3939 H       1  UNL1        0.0659
     43 H          -2.1510    2.4016    4.9767 H       1  UNL1        0.2923
     44 H          -2.5628    5.2559    3.0101 H       1  UNL1        0.2923
     45 H          -2.5732    4.4714    0.6799 H       1  UNL1        0.0655
     46 H          -2.4213    2.5982   -0.9028 H       1  UNL1        0.0623
     47 H          -4.3083   -3.2895    0.5780 H       1  UNL1        0.0691
     48 H          -4.9143   -5.6740    0.4102 H       1  UNL1        0.2921
     49 H          -1.9522   -6.0835   -1.6731 H       1  UNL1        0.0691
     50 H           0.5064   -3.7009   -2.8472 H       1  UNL1        0.2921
     51 H           1.5618    2.5509   -1.7036 H       1  UNL1        0.0671
     52 H           0.9201    3.5447    0.9008 H       1  UNL1        0.2101
     53 H           3.4911    3.6353   -0.7754 H       1  UNL1        0.0648
     54 H           2.9824    2.1184    1.5967 H       1  UNL1        0.2100
     55 H           4.3440    1.8045   -1.8351 H       1  UNL1        0.0647
     56 H           4.8450    0.9360    0.8397 H       1  UNL1        0.2100
@<TRIPOS>BOND
     1     1     2    1
     2     2     3    1
     3     3     4    1
     4     4     5    1
     5     5     6    1
     6     6     7    1
     7     7     8    1
     8     8     9    1
     9     9    10   ar
    10    10    11    1
    11    11    12    1
    12    12    13    1
    13    13    14   ar
    14    14    15   ar
    15    15    16    1
    16    15    17   ar
    17    17    18    1
    18    17    19   ar
    19    19    20   ar
    20    10    21   ar
    21    21    22   ar
    22    22    23    1
    23    22    24   ar
    24    24    25   ar
    25    25    26    1
    26     5    27    1
    27    27    28    1
    28    27    29    1
    29    29    30    1
    30    29    31    1
    31    31    32    1
    32    31     3    1
    33    12     7    1
    34    20    13   ar
    35    25     9   ar
    36     1    33    1
    37     2    34    1
    38     2    35    1
    39     3    36    1
    40     5    37    1
    41     7    38    1
    42     8    39    1
    43     8    40    1
    44    12    41    1
    45    14    42    1
    46    16    43    1
    47    18    44    1
    48    19    45    1
    49    20    46    1
    50    21    47    1
    51    23    48    1
    52    24    49    1
    53    26    50    1
    54    27    51    1
    55    28    52    1
    56    29    53    1
    57    30    54    1
    58    31    55    1
    59    32    56    1
