@<TRIPOS>MOLECULE
Naringenin
 32 34 0 0 0
SMALL
GASTEIGER

@<TRIPOS>ATOM
      1 O           4.8314    1.3524   -1.9381 O.3     1  UNL1       -0.5068
      2 C           3.8260    0.7166   -1.2134 C.ar    1  UNL1        0.1169
      3 C           4.0738   -0.4976   -0.5614 C.ar    1  UNL1       -0.0198
      4 C           3.0568   -1.1262    0.1629 C.ar    1  UNL1       -0.0516
      5 C           1.7799   -0.5438    0.2559 C.ar    1  UNL1       -0.0067
      6 C           1.5368    0.6697   -0.4160 C.ar    1  UNL1       -0.0516
      7 C           2.5562    1.2956   -1.1396 C.ar    1  UNL1       -0.0198
      8 C           0.6843   -1.2680    1.0158 C.3     1  UNL1        0.1322
      9 C          -0.1209   -2.1975    0.0908 C.3     1  UNL1        0.0520
     10 C          -1.1119   -1.4069   -0.7069 C.2     1  UNL1        0.1740
     11 O          -1.2060   -1.5988   -1.9481 O.2     1  UNL1       -0.2917
     12 C          -1.9094   -0.3694   -0.0165 C.ar    1  UNL1        0.1007
     13 C          -3.1433    0.1358   -0.5014 C.ar    1  UNL1        0.1343
     14 O          -3.7858   -0.3801   -1.6290 O.3     1  UNL1       -0.5058
     15 C          -3.7798    1.1758    0.1868 C.ar    1  UNL1        0.0222
     16 C          -3.2394    1.6849    1.3729 C.ar    1  UNL1        0.1238
     17 O          -3.8821    2.7098    2.0637 O.3     1  UNL1       -0.5065
     18 C          -2.0487    1.1584    1.8742 C.ar    1  UNL1        0.0225
     19 C          -1.3793    0.1438    1.1856 C.ar    1  UNL1        0.1389
     20 O          -0.1694   -0.3439    1.7048 O.3     1  UNL1       -0.4828
     21 H           5.7618    0.9575   -2.0113 H       1  UNL1        0.2921
     22 H           5.0523   -0.9572   -0.6185 H       1  UNL1        0.0654
     23 H           3.2655   -2.0707    0.6503 H       1  UNL1        0.0623
     24 H           0.5636    1.1379   -0.3878 H       1  UNL1        0.0623
     25 H           2.3576    2.2308   -1.6474 H       1  UNL1        0.0654
     26 H           1.1639   -1.9029    1.7928 H       1  UNL1        0.0789
     27 H          -0.6803   -2.9315    0.7098 H       1  UNL1        0.0385
     28 H           0.5608   -2.7672   -0.5790 H       1  UNL1        0.0385
     29 H          -3.5178   -1.2406   -2.0843 H       1  UNL1        0.2922
     30 H          -4.7151    1.5710   -0.1899 H       1  UNL1        0.0691
     31 H          -4.7491    3.1129    1.7277 H       1  UNL1        0.2921
     32 H          -1.6325    1.5492    2.7943 H       1  UNL1        0.0691
@<TRIPOS>BOND
     1     1     2    1
     2     2     3   ar
     3     3     4   ar
     4     4     5   ar
     5     5     6   ar
     6     6     7   ar
     7     5     8    1
     8     8     9    1
     9     9    10    1
    10    10    11    2
    11    10    12    1
    12    12    13   ar
    13    13    14    1
    14    13    15   ar
    15    15    16   ar
    16    16    17    1
    17    16    18   ar
    18    18    19   ar
    19    19    20    1
    20     7     2   ar
    21    20     8    1
    22    19    12   ar
    23     1    21    1
    24     3    22    1
    25     4    23    1
    26     6    24    1
    27     7    25    1
    28     8    26    1
    29     9    27    1
    30     9    28    1
    31    14    29    1
    32    15    30    1
    33    17    31    1
    34    18    32    1
