@<TRIPOS>MOLECULE
Eriodictyol
 33 35 0 0 0
SMALL
GASTEIGER

@<TRIPOS>ATOM
      1 O           5.0485   -2.4905    0.3412 O.3     1  UNL1       -0.5065
      2 C           4.1909   -1.4061    0.1693 C.ar    1  UNL1        0.1238
      3 C           4.7172   -0.1587   -0.1719 C.ar    1  UNL1        0.0222
      4 C           3.8788    0.9454   -0.3693 C.ar    1  UNL1        0.1343
      5 O           4.4728    2.1338   -0.7999 O.3     1  UNL1       -0.5058
      6 C           2.4808    0.8071   -0.1625 C.ar    1  UNL1        0.1007
      7 C           1.5083    1.9223   -0.2740 C.2     1  UNL1        0.1740
      8 O           1.8633    3.1254   -0.1634 O.2     1  UNL1       -0.2917
      9 C           0.0558    1.5980   -0.4588 C.3     1  UNL1        0.0520
     10 C          -0.3291    0.4549    0.4911 C.3     1  UNL1        0.1323
     11 O           0.5806   -0.6408    0.3544 O.3     1  UNL1       -0.4828
     12 C           1.9592   -0.4609    0.1748 C.ar    1  UNL1        0.1389
     13 C           2.8104   -1.5577    0.3276 C.ar    1  UNL1        0.0225
     14 C          -1.7408   -0.0082    0.2246 C.ar    1  UNL1       -0.0033
     15 C          -2.7971    0.4432    1.0313 C.ar    1  UNL1       -0.0099
     16 C          -4.1165    0.0470    0.7778 C.ar    1  UNL1        0.1586
     17 O          -5.1162    0.5296    1.6250 O.3     1  UNL1       -0.5033
     18 C          -4.3883   -0.8131   -0.3127 C.ar    1  UNL1        0.1582
     19 O          -5.6764   -1.2531   -0.6245 O.3     1  UNL1       -0.5033
     20 C          -3.3343   -1.2483   -1.1238 C.ar    1  UNL1       -0.0162
     21 C          -2.0229   -0.8473   -0.8640 C.ar    1  UNL1       -0.0514
     22 H           4.6983   -3.4092    0.5864 H       1  UNL1        0.2921
     23 H           5.7855   -0.0524   -0.3149 H       1  UNL1        0.0691
     24 H           3.9583    2.9236   -1.1610 H       1  UNL1        0.2922
     25 H          -0.1068    1.2939   -1.5156 H       1  UNL1        0.0385
     26 H          -0.5708    2.4918   -0.2450 H       1  UNL1        0.0385
     27 H          -0.2499    0.8296    1.5367 H       1  UNL1        0.0789
     28 H           2.3972   -2.5250    0.5846 H       1  UNL1        0.0691
     29 H          -2.5976    1.1087    1.8626 H       1  UNL1        0.0659
     30 H          -6.0963    0.3083    1.5250 H       1  UNL1        0.2923
     31 H          -6.5016   -1.0005   -0.1003 H       1  UNL1        0.2923
     32 H          -3.5346   -1.9008   -1.9644 H       1  UNL1        0.0655
     33 H          -1.2270   -1.1901   -1.5137 H       1  UNL1        0.0623
@<TRIPOS>BOND
     1     1     2    1
     2     2     3   ar
     3     3     4   ar
     4     4     5    1
     5     4     6   ar
     6     6     7    1
     7     7     8    2
     8     7     9    1
     9     9    10    1
    10    10    11    1
    11    11    12    1
    12    12    13   ar
    13    10    14    1
    14    14    15   ar
    15    15    16   ar
    16    16    17    1
    17    16    18   ar
    18    18    19    1
    19    18    20   ar
    20    20    21   ar
    21    13     2   ar
    22    21    14   ar
    23    12     6   ar
    24     1    22    1
    25     3    23    1
    26     5    24    1
    27     9    25    1
    28     9    26    1
    29    10    27    1
    30    13    28    1
    31    15    29    1
    32    17    30    1
    33    19    31    1
    34    20    32    1
    35    21    33    1
