@<TRIPOS>MOLECULE
Hesperetin
 36 38 0 0 0
SMALL
GASTEIGER

@<TRIPOS>ATOM
      1 C          -6.2684   -0.6729   -1.1812 C.3     1  UNL1        0.0790
      2 O          -5.2692    0.3235   -0.9909 O.3     1  UNL1       -0.4915
      3 C          -3.9127    0.0543   -0.7488 C.ar    1  UNL1        0.1613
      4 C          -3.0254    1.1326   -0.5771 C.ar    1  UNL1        0.1588
      5 O          -3.4749    2.4515   -0.6399 O.3     1  UNL1       -0.5033
      6 C          -1.6679    0.8936   -0.3367 C.ar    1  UNL1       -0.0098
      7 C          -1.1716   -0.4187   -0.2733 C.ar    1  UNL1       -0.0033
      8 C          -2.0599   -1.4930   -0.4292 C.ar    1  UNL1       -0.0514
      9 C          -3.4162   -1.2611   -0.6701 C.ar    1  UNL1       -0.0159
     10 C           0.2868   -0.6759    0.0191 C.3     1  UNL1        0.1323
     11 C           0.5781   -0.5193    1.5163 C.3     1  UNL1        0.0520
     12 C           2.0579   -0.5869    1.7766 C.2     1  UNL1        0.1740
     13 O           2.4410   -0.9579    2.9160 O.2     1  UNL1       -0.2917
     14 C           3.0198   -0.0976    0.7449 C.ar    1  UNL1        0.1007
     15 C           4.4272   -0.0001    0.9378 C.ar    1  UNL1        0.1343
     16 O           5.0947   -0.5260    2.0467 O.3     1  UNL1       -0.5058
     17 C           5.2137    0.6388   -0.0293 C.ar    1  UNL1        0.0222
     18 C           4.6433    1.1402   -1.2030 C.ar    1  UNL1        0.1238
     19 O           5.4308    1.7737   -2.1619 O.3     1  UNL1       -0.5065
     20 C           3.2750    0.9960   -1.4230 C.ar    1  UNL1        0.0225
     21 C           2.4693    0.3693   -0.4702 C.ar    1  UNL1        0.1389
     22 O           1.1041    0.2179   -0.7354 O.3     1  UNL1       -0.4828
     23 H          -7.2457   -0.1776   -1.3541 H       1  UNL1        0.0660
     24 H          -6.0234   -1.2950   -2.0679 H       1  UNL1        0.0660
     25 H          -6.3487   -1.3110   -0.2759 H       1  UNL1        0.0660
     26 H          -4.4460    2.6837   -0.8101 H       1  UNL1        0.2923
     27 H          -1.0000    1.7349   -0.1965 H       1  UNL1        0.0659
     28 H          -1.7032   -2.5135   -0.3636 H       1  UNL1        0.0623
     29 H          -4.0712   -2.1131   -0.7906 H       1  UNL1        0.0655
     30 H           0.5516   -1.7147   -0.2825 H       1  UNL1        0.0789
     31 H           0.0578   -1.3238    2.0812 H       1  UNL1        0.0385
     32 H           0.2059    0.4637    1.8781 H       1  UNL1        0.0385
     33 H           4.7020   -1.2033    2.6822 H       1  UNL1        0.2922
     34 H           6.2815    0.7298    0.1277 H       1  UNL1        0.0691
     35 H           6.4291    1.8917   -2.0340 H       1  UNL1        0.2921
     36 H           2.8349    1.3663   -2.3405 H       1  UNL1        0.0691
@<TRIPOS>BOND
     1     1     2    1
     2     2     3    1
     3     3     4   ar
     4     4     5    1
     5     4     6   ar
     6     6     7   ar
     7     7     8   ar
     8     8     9   ar
     9     7    10    1
    10    10    11    1
    11    11    12    1
    12    12    13    2
    13    12    14    1
    14    14    15   ar
    15    15    16    1
    16    15    17   ar
    17    17    18   ar
    18    18    19    1
    19    18    20   ar
    20    20    21   ar
    21    21    22    1
    22     9     3   ar
    23    22    10    1
    24    21    14   ar
    25     1    23    1
    26     1    24    1
    27     1    25    1
    28     5    26    1
    29     6    27    1
    30     8    28    1
    31     9    29    1
    32    10    30    1
    33    11    31    1
    34    11    32    1
    35    16    33    1
    36    17    34    1
    37    19    35    1
    38    20    36    1
