@<TRIPOS>MOLECULE
Peonidin 3-O-rutinoside
 76 80 0 0 0
SMALL
GASTEIGER

@<TRIPOS>ATOM
      1 C           6.4813    1.2425   -0.8130 C.3     1  UNL1        0.0873
      2 C           7.8387    1.1382   -0.1171 C.3     1  UNL1       -0.0361
      3 O           5.9607   -0.0627   -0.9878 O.3     1  UNL1       -0.3431
      4 C           4.5774   -0.0333   -1.3162 C.3     1  UNL1        0.1879
      5 O           3.8325    0.1919   -0.1293 O.3     1  UNL1       -0.3461
      6 C           2.5951   -0.4901   -0.1681 C.3     1  UNL1        0.0796
      7 C           1.7462   -0.0997    1.0482 C.3     1  UNL1        0.1144
      8 O           0.4420   -0.6203    0.8553 O.3     1  UNL1       -0.3313
      9 C          -0.4366   -0.1435    1.8593 C.3     1  UNL1        0.2312
     10 O          -1.7627   -0.5730    1.5579 O.3     1  UNL1       -0.4515
     11 C          -2.4932   -0.2065    0.4141 C.ar    1  UNL1        0.2288
     12 C          -1.9922    0.7020   -0.5339 C.ar    1  UNL1        0.0093
     13 C          -2.7722    1.0709   -1.6417 C.ar    1  UNL1        0.1241
     14 C          -4.0662    0.5088   -1.7443 C.ar    1  UNL1        0.3708
     15 C          -4.9009    0.8519   -2.8110 C.ar    1  UNL1        0.0847
     16 C          -4.4663    1.7496   -3.7862 C.ar    1  UNL1        0.1293
     17 O          -5.3138    2.0808   -4.8412 O.3     1  UNL1       -0.5063
     18 C          -3.1858    2.3072   -3.6983 C.ar    1  UNL1        0.0225
     19 C          -2.3292    1.9772   -2.6408 C.ar    1  UNL1        0.1366
     20 O          -1.0614    2.5670   -2.6331 O.3     1  UNL1       -0.5057
     21 O          -4.5044   -0.3512   -0.8323 O.2     1  UNL1       -0.1997
     22 C          -3.7817   -0.7384    0.2147 C.ar    1  UNL1        0.4046
     23 C          -4.3799   -1.7154    1.1532 C.ar    1  UNL1        0.0865
     24 C          -5.7320   -1.5911    1.5114 C.ar    1  UNL1       -0.0001
     25 C          -6.3327   -2.5160    2.3891 C.ar    1  UNL1        0.1621
     26 O          -7.6786   -2.4085    2.7748 O.3     1  UNL1       -0.4914
     27 C          -8.5654   -1.3840    2.3370 C.3     1  UNL1        0.0790
     28 C          -5.5649   -3.5804    2.8954 C.ar    1  UNL1        0.1585
     29 O          -6.1184   -4.5172    3.7681 O.3     1  UNL1       -0.5033
     30 C          -4.2248   -3.7161    2.5221 C.ar    1  UNL1       -0.0157
     31 C          -3.6360   -2.7972    1.6523 C.ar    1  UNL1       -0.0418
     32 C          -0.0277   -0.7199    3.2279 C.3     1  UNL1        0.1454
     33 O          -0.9102   -0.2936    4.2364 O.3     1  UNL1       -0.3829
     34 C           1.4246   -0.3181    3.5568 C.3     1  UNL1        0.1152
     35 O           1.8691   -1.0056    4.6976 O.3     1  UNL1       -0.3864
     36 C           2.3461   -0.6561    2.3684 C.3     1  UNL1        0.1120
     37 O           3.6424   -0.1609    2.5989 O.3     1  UNL1       -0.3865
     38 C           4.2344    1.0516   -2.3875 C.3     1  UNL1        0.1341
     39 O           3.2253    0.6179   -3.2665 O.3     1  UNL1       -0.3841
     40 C           5.4901    1.5129   -3.1605 C.3     1  UNL1        0.1140
     41 O           5.9522    0.5116   -4.0371 O.3     1  UNL1       -0.3864
     42 C           6.6086    1.9616   -2.1844 C.3     1  UNL1        0.1095
     43 O           6.5224    3.3518   -1.9947 O.3     1  UNL1       -0.3866
     44 H           5.8196    1.8364   -0.1379 H       1  UNL1        0.0621
     45 H           8.2670    2.1482    0.0544 H       1  UNL1        0.0255
     46 H           8.5462    0.5409   -0.7313 H       1  UNL1        0.0255
     47 H           7.7165    0.6386    0.8674 H       1  UNL1        0.0255
     48 H           4.3643   -1.0394   -1.7496 H       1  UNL1        0.0937
     49 H           2.7556   -1.5923   -0.1656 H       1  UNL1        0.0587
     50 H           2.0254   -0.2125   -1.0838 H       1  UNL1        0.0587
     51 H           1.7145    1.0154    1.0836 H       1  UNL1        0.0647
     52 H          -0.4312    0.9713    1.9055 H       1  UNL1        0.1084
     53 H          -1.0126    1.1208   -0.3864 H       1  UNL1        0.0667
     54 H          -5.8913    0.4190   -2.8822 H       1  UNL1        0.0749
     55 H          -5.0290    2.7290   -5.5663 H       1  UNL1        0.2921
     56 H          -2.8499    3.0006   -4.4595 H       1  UNL1        0.0691
     57 H          -0.3469    2.3801   -1.9449 H       1  UNL1        0.2922
     58 H          -6.3058   -0.7647    1.1131 H       1  UNL1        0.0664
     59 H          -8.6743   -1.4193    1.2324 H       1  UNL1        0.0660
     60 H          -8.1859   -0.3894    2.6533 H       1  UNL1        0.0660
     61 H          -9.5616   -1.5463    2.7971 H       1  UNL1        0.0660
     62 H          -7.0837   -4.4686    4.0711 H       1  UNL1        0.2923
     63 H          -3.6392   -4.5436    2.9021 H       1  UNL1        0.0655
     64 H          -2.6064   -2.9473    1.3535 H       1  UNL1        0.0628
     65 H          -0.0847   -1.8298    3.1689 H       1  UNL1        0.0683
     66 H          -0.8690    0.6979    4.2741 H       1  UNL1        0.2102
     67 H           1.4689    0.7830    3.7358 H       1  UNL1        0.0648
     68 H           1.4762   -0.5430    5.4833 H       1  UNL1        0.2100
     69 H           2.4125   -1.7639    2.2835 H       1  UNL1        0.0647
     70 H           3.5839    0.8298    2.6371 H       1  UNL1        0.2100
     71 H           3.8404    1.9469   -1.8563 H       1  UNL1        0.0671
     72 H           3.5526   -0.1962   -3.7299 H       1  UNL1        0.2101
     73 H           5.1987    2.3807   -3.7931 H       1  UNL1        0.0648
     74 H           6.2747   -0.2527   -3.4935 H       1  UNL1        0.2100
     75 H           7.5896    1.7162   -2.6583 H       1  UNL1        0.0646
     76 H           7.4126    3.6577   -1.6799 H       1  UNL1        0.2100
@<TRIPOS>UNITY_ATOM_ATTR
21 1
charge 1
@<TRIPOS>BOND
     1     1     2    1
     2     1     3    1
     3     3     4    1
     4     4     5    1
     5     5     6    1
     6     6     7    1
     7     7     8    1
     8     8     9    1
     9     9    10    1
    10    10    11    1
    11    11    12   ar
    12    12    13   ar
    13    13    14   ar
    14    14    15   ar
    15    15    16   ar
    16    16    17    1
    17    16    18   ar
    18    18    19   ar
    19    19    20    1
    20    14    21   ar
    21    21    22   ar
    22    22    23    1
    23    23    24   ar
    24    24    25   ar
    25    25    26    1
    26    26    27    1
    27    25    28   ar
    28    28    29    1
    29    28    30   ar
    30    30    31   ar
    31     9    32    1
    32    32    33    1
    33    32    34    1
    34    34    35    1
    35    34    36    1
    36    36    37    1
    37     4    38    1
    38    38    39    1
    39    38    40    1
    40    40    41    1
    41    40    42    1
    42    42    43    1
    43    42     1    1
    44    36     7    1
    45    22    11   ar
    46    31    23   ar
    47    19    13   ar
    48     1    44    1
    49     2    45    1
    50     2    46    1
    51     2    47    1
    52     4    48    1
    53     6    49    1
    54     6    50    1
    55     7    51    1
    56     9    52    1
    57    12    53    1
    58    15    54    1
    59    17    55    1
    60    18    56    1
    61    20    57    1
    62    24    58    1
    63    27    59    1
    64    27    60    1
    65    27    61    1
    66    29    62    1
    67    30    63    1
    68    31    64    1
    69    32    65    1
    70    33    66    1
    71    34    67    1
    72    35    68    1
    73    36    69    1
    74    37    70    1
    75    38    71    1
    76    39    72    1
    77    40    73    1
    78    41    74    1
    79    42    75    1
    80    43    76    1
