@<TRIPOS>MOLECULE
Eriocitrin
 74 78 0 0 0
SMALL
GASTEIGER

@<TRIPOS>ATOM
      1 C           6.3741    0.2450    3.3862 C.3     1  UNL1       -0.0361
      2 C           6.8957    1.2567    2.3604 C.3     1  UNL1        0.0873
      3 O           5.8154    1.8245    1.6238 O.3     1  UNL1       -0.3431
      4 C           5.5156    1.0821    0.4527 C.3     1  UNL1        0.1879
      5 O           4.3173    1.5764   -0.1157 O.3     1  UNL1       -0.3461
      6 C           3.1818    1.0960    0.5832 C.3     1  UNL1        0.0796
      7 C           2.5988   -0.1592   -0.0937 C.3     1  UNL1        0.1144
      8 O           1.6523   -0.7321    0.8074 O.3     1  UNL1       -0.3313
      9 C           0.5914   -1.4614    0.2020 C.3     1  UNL1        0.2308
     10 O          -0.5151   -0.5773   -0.0026 O.3     1  UNL1       -0.4606
     11 C          -1.8393   -0.9581   -0.2758 C.ar    1  UNL1        0.1310
     12 C          -2.2842   -2.2911   -0.1974 C.ar    1  UNL1        0.0226
     13 C          -3.6167   -2.6173   -0.4904 C.ar    1  UNL1        0.1343
     14 O          -4.0314   -3.9476   -0.4246 O.3     1  UNL1       -0.5058
     15 C          -4.5222   -1.6007   -0.8568 C.ar    1  UNL1        0.1007
     16 C          -5.9330   -1.8747   -1.2072 C.2     1  UNL1        0.1740
     17 O          -6.4545   -3.0009   -0.9882 O.2     1  UNL1       -0.2917
     18 C          -6.7371   -0.8101   -1.8928 C.3     1  UNL1        0.0520
     19 C          -6.3884    0.5886   -1.3509 C.3     1  UNL1        0.1323
     20 O          -4.9710    0.7683   -1.2287 O.3     1  UNL1       -0.4828
     21 C          -4.0804   -0.2670   -0.9094 C.ar    1  UNL1        0.1389
     22 C          -2.7477    0.0432   -0.6296 C.ar    1  UNL1        0.0229
     23 C          -7.1008    0.8700   -0.0400 C.ar    1  UNL1       -0.0033
     24 C          -8.3706    1.4741   -0.0630 C.ar    1  UNL1       -0.0099
     25 C          -9.0721    1.7150    1.1271 C.ar    1  UNL1        0.1586
     26 O         -10.3265    2.3219    1.0903 O.3     1  UNL1       -0.5033
     27 C          -8.5079    1.3403    2.3572 C.ar    1  UNL1        0.1582
     28 O          -9.1791    1.5674    3.5582 O.3     1  UNL1       -0.5033
     29 C          -7.2533    0.7255    2.3853 C.ar    1  UNL1       -0.0162
     30 C          -6.5557    0.4852    1.1990 C.ar    1  UNL1       -0.0514
     31 C           1.0003   -2.1518   -1.1215 C.3     1  UNL1        0.1454
     32 O           2.0538   -3.0505   -0.8802 O.3     1  UNL1       -0.3829
     33 C           1.4427   -1.1030   -2.1629 C.3     1  UNL1        0.1152
     34 O           0.3446   -0.7611   -2.9710 O.3     1  UNL1       -0.3864
     35 C           2.0106    0.1723   -1.4925 C.3     1  UNL1        0.1120
     36 O           3.0047    0.7274   -2.3158 O.3     1  UNL1       -0.3865
     37 C           6.6534    1.2352   -0.5868 C.3     1  UNL1        0.1341
     38 O           6.6488    0.1271   -1.4519 O.3     1  UNL1       -0.3841
     39 C           8.0345    1.3672    0.1041 C.3     1  UNL1        0.1140
     40 O           9.0563    0.8361   -0.7006 O.3     1  UNL1       -0.3864
     41 C           8.0189    0.6516    1.4648 C.3     1  UNL1        0.1095
     42 O           9.2716    0.7313    2.1005 O.3     1  UNL1       -0.3866
     43 H           5.6020    0.7229    4.0257 H       1  UNL1        0.0255
     44 H           7.2059   -0.1006    4.0361 H       1  UNL1        0.0255
     45 H           5.9233   -0.6367    2.8851 H       1  UNL1        0.0255
     46 H           7.3404    2.0934    2.9421 H       1  UNL1        0.0621
     47 H           5.4130   -0.0050    0.6927 H       1  UNL1        0.0937
     48 H           3.3936    0.8843    1.6590 H       1  UNL1        0.0587
     49 H           2.4107    1.8958    0.5833 H       1  UNL1        0.0587
     50 H           3.4275   -0.8888   -0.2261 H       1  UNL1        0.0647
     51 H           0.2946   -2.2428    0.9327 H       1  UNL1        0.1084
     52 H          -1.6095   -3.0854    0.0869 H       1  UNL1        0.0691
     53 H          -3.3943   -4.6922   -0.1665 H       1  UNL1        0.2922
     54 H          -7.8254   -1.0098   -1.7777 H       1  UNL1        0.0385
     55 H          -6.5000   -0.8467   -2.9778 H       1  UNL1        0.0385
     56 H          -6.7403    1.3322   -2.0993 H       1  UNL1        0.0789
     57 H          -2.4169    1.0732   -0.6798 H       1  UNL1        0.0691
     58 H          -8.8186    1.7564   -1.0080 H       1  UNL1        0.0659
     59 H         -10.7560    2.6010    0.2159 H       1  UNL1        0.2923
     60 H         -10.0903    2.0086    3.5903 H       1  UNL1        0.2923
     61 H          -6.8183    0.4288    3.3313 H       1  UNL1        0.0655
     62 H          -5.5938   -0.0013    1.2604 H       1  UNL1        0.0623
     63 H           0.1369   -2.7215   -1.5356 H       1  UNL1        0.0683
     64 H           1.6620   -3.8354   -0.4149 H       1  UNL1        0.2102
     65 H           2.2309   -1.5694   -2.8018 H       1  UNL1        0.0648
     66 H           0.7101   -0.3400   -3.7923 H       1  UNL1        0.2100
     67 H           1.1899    0.9150   -1.3466 H       1  UNL1        0.0647
     68 H           2.5375    1.2116   -3.0456 H       1  UNL1        0.2100
     69 H           6.4918    2.1660   -1.1808 H       1  UNL1        0.0671
     70 H           5.8671    0.2368   -2.0542 H       1  UNL1        0.2101
     71 H           8.2380    2.4493    0.2892 H       1  UNL1        0.0648
     72 H           9.1808    1.4691   -1.4554 H       1  UNL1        0.2100
     73 H           7.8062   -0.4252    1.2780 H       1  UNL1        0.0646
     74 H           9.5055    1.6921    2.1915 H       1  UNL1        0.2100
@<TRIPOS>BOND
     1     1     2    1
     2     2     3    1
     3     3     4    1
     4     4     5    1
     5     5     6    1
     6     6     7    1
     7     7     8    1
     8     8     9    1
     9     9    10    1
    10    10    11    1
    11    11    12   ar
    12    12    13   ar
    13    13    14    1
    14    13    15   ar
    15    15    16    1
    16    16    17    2
    17    16    18    1
    18    18    19    1
    19    19    20    1
    20    20    21    1
    21    21    22   ar
    22    19    23    1
    23    23    24   ar
    24    24    25   ar
    25    25    26    1
    26    25    27   ar
    27    27    28    1
    28    27    29   ar
    29    29    30   ar
    30     9    31    1
    31    31    32    1
    32    31    33    1
    33    33    34    1
    34    33    35    1
    35    35    36    1
    36     4    37    1
    37    37    38    1
    38    37    39    1
    39    39    40    1
    40    39    41    1
    41    41    42    1
    42    41     2    1
    43    35     7    1
    44    22    11   ar
    45    30    23   ar
    46    21    15   ar
    47     1    43    1
    48     1    44    1
    49     1    45    1
    50     2    46    1
    51     4    47    1
    52     6    48    1
    53     6    49    1
    54     7    50    1
    55     9    51    1
    56    12    52    1
    57    14    53    1
    58    18    54    1
    59    18    55    1
    60    19    56    1
    61    22    57    1
    62    24    58    1
    63    26    59    1
    64    28    60    1
    65    29    61    1
    66    30    62    1
    67    31    63    1
    68    32    64    1
    69    33    65    1
    70    34    66    1
    71    35    67    1
    72    36    68    1
    73    37    69    1
    74    38    70    1
    75    39    71    1
    76    40    72    1
    77    41    73    1
    78    42    74    1
