@<TRIPOS>MOLECULE
Hesperidin
 77 81 0 0 0
SMALL
GASTEIGER

@<TRIPOS>ATOM
      1 C           7.7854    4.5902    3.8721 C.3     1  UNL1        0.0790
      2 O           6.5480    4.0424    3.4292 O.3     1  UNL1       -0.4915
      3 C           6.3200    2.6757    3.2045 C.ar    1  UNL1        0.1613
      4 C           5.0514    2.2719    2.7672 C.ar    1  UNL1        0.1588
      5 O           4.0579    3.2284    2.5637 O.3     1  UNL1       -0.5033
      6 C           4.7835    0.9158    2.5333 C.ar    1  UNL1       -0.0098
      7 C           5.7770   -0.0576    2.7431 C.ar    1  UNL1       -0.0033
      8 C           7.0509    0.3556    3.1657 C.ar    1  UNL1       -0.0514
      9 C           7.3203    1.7060    3.4004 C.ar    1  UNL1       -0.0159
     10 C           5.5268   -1.5272    2.4584 C.3     1  UNL1        0.1323
     11 C           5.8063   -1.8695    0.9845 C.3     1  UNL1        0.0520
     12 C           4.6565   -1.4431    0.1244 C.2     1  UNL1        0.1740
     13 O           4.8779   -0.7986   -0.9348 O.2     1  UNL1       -0.2917
     14 C           3.2812   -1.7362    0.5847 C.ar    1  UNL1        0.1007
     15 C           2.1542   -1.7946   -0.2729 C.ar    1  UNL1        0.1343
     16 O           2.2513   -1.6941   -1.6626 O.3     1  UNL1       -0.5058
     17 C           0.8808   -1.9955    0.2730 C.ar    1  UNL1        0.0226
     18 C           0.7105   -2.1914    1.6553 C.ar    1  UNL1        0.1310
     19 O          -0.5480   -2.4051    2.2398 O.3     1  UNL1       -0.4606
     20 C          -1.7879   -2.3963    1.5332 C.3     1  UNL1        0.2308
     21 O          -2.0132   -1.1040    1.0024 O.3     1  UNL1       -0.3313
     22 C          -3.0645   -1.1404    0.0477 C.3     1  UNL1        0.1144
     23 C          -3.3559    0.3036   -0.3913 C.3     1  UNL1        0.0796
     24 O          -4.3089    0.3265   -1.4399 O.3     1  UNL1       -0.3461
     25 C          -3.6797    0.4017   -2.7083 C.3     1  UNL1        0.1879
     26 O          -3.1936    1.7216   -2.9391 O.3     1  UNL1       -0.3431
     27 C          -4.2339    2.5943   -3.3422 C.3     1  UNL1        0.0873
     28 C          -3.7268    4.0339   -3.2559 C.3     1  UNL1       -0.0361
     29 C          -4.7058    2.2509   -4.7850 C.3     1  UNL1        0.1095
     30 O          -6.0672    2.5709   -4.9245 O.3     1  UNL1       -0.3866
     31 C          -4.5045    0.7499   -5.0962 C.3     1  UNL1        0.1140
     32 O          -3.2149    0.5579   -5.6261 O.3     1  UNL1       -0.3864
     33 C          -4.6777   -0.0743   -3.8051 C.3     1  UNL1        0.1341
     34 O          -4.5667   -1.4556   -4.0491 O.3     1  UNL1       -0.3841
     35 C          -4.3496   -1.8408    0.6015 C.3     1  UNL1        0.1120
     36 O          -4.5071   -3.0837   -0.0367 O.3     1  UNL1       -0.3865
     37 C          -4.2490   -2.0486    2.1265 C.3     1  UNL1        0.1152
     38 O          -4.3076   -0.7947    2.7592 O.3     1  UNL1       -0.3864
     39 C          -2.9285   -2.7706    2.5047 C.3     1  UNL1        0.1454
     40 O          -3.1129   -4.1632    2.4794 O.3     1  UNL1       -0.3829
     41 C           1.8312   -2.1812    2.4875 C.ar    1  UNL1        0.0229
     42 C           3.1056   -1.9475    1.9668 C.ar    1  UNL1        0.1389
     43 O           4.2006   -1.9138    2.8450 O.3     1  UNL1       -0.4828
     44 H           8.5860    4.3705    3.1346 H       1  UNL1        0.0660
     45 H           7.6816    5.6905    3.9663 H       1  UNL1        0.0660
     46 H           8.0545    4.1722    4.8651 H       1  UNL1        0.0660
     47 H           3.1302    2.9713    2.2470 H       1  UNL1        0.2923
     48 H           3.8000    0.6333    2.1870 H       1  UNL1        0.0659
     49 H           7.8412   -0.3704    3.3124 H       1  UNL1        0.0623
     50 H           8.3116    1.9854    3.7301 H       1  UNL1        0.0655
     51 H           6.2294   -2.1249    3.0797 H       1  UNL1        0.0789
     52 H           5.9265   -2.9695    0.8827 H       1  UNL1        0.0385
     53 H           6.7519   -1.3911    0.6456 H       1  UNL1        0.0385
     54 H           3.1231   -1.7399   -2.1701 H       1  UNL1        0.2922
     55 H           0.0332   -2.0244   -0.3977 H       1  UNL1        0.0691
     56 H          -1.7270   -3.1587    0.7189 H       1  UNL1        0.1084
     57 H          -2.7034   -1.6847   -0.8550 H       1  UNL1        0.0647
     58 H          -2.4026    0.8217   -0.6535 H       1  UNL1        0.0587
     59 H          -3.7772    0.8628    0.4712 H       1  UNL1        0.0587
     60 H          -2.7961   -0.2763   -2.7508 H       1  UNL1        0.0937
     61 H          -5.0945    2.5144   -2.6358 H       1  UNL1        0.0621
     62 H          -3.4223    4.2613   -2.2122 H       1  UNL1        0.0255
     63 H          -4.5266    4.7456   -3.5509 H       1  UNL1        0.0255
     64 H          -2.8476    4.1768   -3.9201 H       1  UNL1        0.0255
     65 H          -4.1164    2.8312   -5.5353 H       1  UNL1        0.0646
     66 H          -6.1228    3.5561   -5.0322 H       1  UNL1        0.2100
     67 H          -5.2726    0.4299   -5.8414 H       1  UNL1        0.0648
     68 H          -3.2671   -0.2067   -6.2571 H       1  UNL1        0.2100
     69 H          -5.7141    0.1071   -3.4412 H       1  UNL1        0.0671
     70 H          -3.6433   -1.6406   -4.3610 H       1  UNL1        0.2101
     71 H          -5.2522   -1.2178    0.3946 H       1  UNL1        0.0647
     72 H          -5.4434   -3.3748    0.1206 H       1  UNL1        0.2100
     73 H          -5.1224   -2.6593    2.4575 H       1  UNL1        0.0648
     74 H          -4.5493   -0.9611    3.7079 H       1  UNL1        0.2100
     75 H          -2.6347   -2.4604    3.5361 H       1  UNL1        0.0683
     76 H          -3.6162   -4.4021    3.3014 H       1  UNL1        0.2102
     77 H           1.7092   -2.3370    3.5522 H       1  UNL1        0.0691
@<TRIPOS>BOND
     1     1     2    1
     2     2     3    1
     3     3     4   ar
     4     4     5    1
     5     4     6   ar
     6     6     7   ar
     7     7     8   ar
     8     8     9   ar
     9     7    10    1
    10    10    11    1
    11    11    12    1
    12    12    13    2
    13    12    14    1
    14    14    15   ar
    15    15    16    1
    16    15    17   ar
    17    17    18   ar
    18    18    19    1
    19    19    20    1
    20    20    21    1
    21    21    22    1
    22    22    23    1
    23    23    24    1
    24    24    25    1
    25    25    26    1
    26    26    27    1
    27    27    28    1
    28    27    29    1
    29    29    30    1
    30    29    31    1
    31    31    32    1
    32    31    33    1
    33    33    34    1
    34    22    35    1
    35    35    36    1
    36    35    37    1
    37    37    38    1
    38    37    39    1
    39    39    40    1
    40    18    41   ar
    41    41    42   ar
    42    42    43    1
    43     9     3   ar
    44    43    10    1
    45    42    14   ar
    46    39    20    1
    47    33    25    1
    48     1    44    1
    49     1    45    1
    50     1    46    1
    51     5    47    1
    52     6    48    1
    53     8    49    1
    54     9    50    1
    55    10    51    1
    56    11    52    1
    57    11    53    1
    58    16    54    1
    59    17    55    1
    60    20    56    1
    61    22    57    1
    62    23    58    1
    63    23    59    1
    64    25    60    1
    65    27    61    1
    66    28    62    1
    67    28    63    1
    68    28    64    1
    69    29    65    1
    70    30    66    1
    71    31    67    1
    72    32    68    1
    73    33    69    1
    74    34    70    1
    75    35    71    1
    76    36    72    1
    77    37    73    1
    78    38    74    1
    79    39    75    1
    80    40    76    1
    81    41    77    1
