@<TRIPOS>MOLECULE
Naringin
 73 77 0 0 0
SMALL
GASTEIGER

@<TRIPOS>ATOM
      1 C          -0.5499    2.5348   -0.0078 C.3     1  UNL1       -0.0361
      2 C          -1.8831    1.7951   -0.1311 C.3     1  UNL1        0.0873
      3 O          -1.9321    1.1817   -1.4106 O.3     1  UNL1       -0.3431
      4 C          -3.1136    0.4134   -1.5941 C.3     1  UNL1        0.1885
      5 O          -3.1933   -0.6470   -0.6467 O.3     1  UNL1       -0.3366
      6 C          -2.6517   -1.8647   -1.1416 C.3     1  UNL1        0.1519
      7 C          -3.7729   -2.7428   -1.7288 C.3     1  UNL1        0.1155
      8 O          -4.4830   -2.0826   -2.7476 O.3     1  UNL1       -0.3863
      9 C          -3.1804   -4.0731   -2.2441 C.3     1  UNL1        0.1120
     10 O          -4.2067   -5.0142   -2.4447 O.3     1  UNL1       -0.3865
     11 C          -2.0918   -4.6285   -1.2797 C.3     1  UNL1        0.1140
     12 C          -0.6676   -4.5656   -1.8749 C.3     1  UNL1        0.0731
     13 O           0.2785   -5.0161   -0.9431 O.3     1  UNL1       -0.3924
     14 O          -2.1704   -4.0448    0.0137 O.3     1  UNL1       -0.3313
     15 C          -1.9857   -2.6318    0.0382 C.3     1  UNL1        0.2312
     16 O          -0.5850   -2.3418    0.0992 O.3     1  UNL1       -0.4606
     17 C           0.0386   -1.3538    0.8780 C.ar    1  UNL1        0.1310
     18 C          -0.5188   -0.8376    2.0623 C.ar    1  UNL1        0.0226
     19 C           0.1516    0.1415    2.8061 C.ar    1  UNL1        0.1343
     20 O          -0.4322    0.5461    4.0088 O.3     1  UNL1       -0.5058
     21 C           1.3896    0.6504    2.3396 C.ar    1  UNL1        0.1007
     22 C           2.1357    1.7527    2.9949 C.2     1  UNL1        0.1740
     23 O           1.5663    2.5749    3.7602 O.2     1  UNL1       -0.2917
     24 C           3.5909    1.9285    2.6781 C.3     1  UNL1        0.0520
     25 C           3.7985    1.7688    1.1655 C.3     1  UNL1        0.1322
     26 O           3.1979    0.5564    0.7015 O.3     1  UNL1       -0.4828
     27 C           1.9597    0.1004    1.1735 C.ar    1  UNL1        0.1389
     28 C           1.2936   -0.9018    0.4667 C.ar    1  UNL1        0.0229
     29 C           5.2681    1.7821    0.8233 C.ar    1  UNL1       -0.0067
     30 C           6.0618    0.6403    1.0335 C.ar    1  UNL1       -0.0516
     31 C           7.4290    0.6672    0.7430 C.ar    1  UNL1       -0.0198
     32 C           8.0212    1.8342    0.2505 C.ar    1  UNL1        0.1169
     33 O           9.3846    1.8463   -0.0349 O.3     1  UNL1       -0.5068
     34 C           7.2393    2.9798    0.0519 C.ar    1  UNL1       -0.0198
     35 C           5.8716    2.9561    0.3416 C.ar    1  UNL1       -0.0516
     36 C          -4.3774    1.2941   -1.4995 C.3     1  UNL1        0.1341
     37 O          -4.3935    2.2175   -2.5596 O.3     1  UNL1       -0.3841
     38 C          -4.3979    2.0380   -0.1534 C.3     1  UNL1        0.1140
     39 O          -5.4950    2.9151   -0.0717 O.3     1  UNL1       -0.3864
     40 C          -3.0637    2.7770    0.0677 C.3     1  UNL1        0.1095
     41 O          -3.0307    3.3645    1.3457 O.3     1  UNL1       -0.3866
     42 H           0.2856    1.8450   -0.2433 H       1  UNL1        0.0255
     43 H          -0.5073    3.3851   -0.7213 H       1  UNL1        0.0255
     44 H          -0.4102    2.9172    1.0258 H       1  UNL1        0.0255
     45 H          -1.9069    1.0204    0.6647 H       1  UNL1        0.0621
     46 H          -3.0901    0.0370   -2.6403 H       1  UNL1        0.0938
     47 H          -1.8714   -1.6922   -1.9216 H       1  UNL1        0.0687
     48 H          -4.4949   -2.9600   -0.9098 H       1  UNL1        0.0648
     49 H          -3.8643   -1.9459   -3.5117 H       1  UNL1        0.2100
     50 H          -2.7132   -3.8900   -3.2369 H       1  UNL1        0.0647
     51 H          -4.6093   -5.2138   -1.5588 H       1  UNL1        0.2100
     52 H          -2.2947   -5.7134   -1.1398 H       1  UNL1        0.0647
     53 H          -0.4087   -3.5299   -2.1739 H       1  UNL1        0.0584
     54 H          -0.6179   -5.1887   -2.7973 H       1  UNL1        0.0584
     55 H           0.1894   -6.0040   -0.9022 H       1  UNL1        0.2095
     56 H          -2.4909   -2.3040    0.9651 H       1  UNL1        0.1084
     57 H          -1.4520   -1.2105    2.4539 H       1  UNL1        0.0691
     58 H           0.0478    1.0842    4.7154 H       1  UNL1        0.2922
     59 H           4.1688    1.1567    3.2314 H       1  UNL1        0.0385
     60 H           3.9388    2.9342    3.0015 H       1  UNL1        0.0385
     61 H           3.2877    2.6152    0.6527 H       1  UNL1        0.0789
     62 H           1.7417   -1.3101   -0.4307 H       1  UNL1        0.0691
     63 H           5.6224   -0.2691    1.4243 H       1  UNL1        0.0623
     64 H           8.0298   -0.2189    0.9042 H       1  UNL1        0.0654
     65 H           9.8434    2.6763   -0.3919 H       1  UNL1        0.2921
     66 H           7.6906    3.8895   -0.3233 H       1  UNL1        0.0654
     67 H           5.2846    3.8536    0.1908 H       1  UNL1        0.0623
     68 H          -5.2823    0.6439   -1.5540 H       1  UNL1        0.0671
     69 H          -4.6973    1.7246   -3.3661 H       1  UNL1        0.2101
     70 H          -4.5195    1.2807    0.6531 H       1  UNL1        0.0648
     71 H          -5.3487    3.6528   -0.7195 H       1  UNL1        0.2100
     72 H          -2.9761    3.5906   -0.6863 H       1  UNL1        0.0646
     73 H          -3.0746    2.6328    2.0158 H       1  UNL1        0.2100
@<TRIPOS>BOND
     1     1     2    1
     2     2     3    1
     3     3     4    1
     4     4     5    1
     5     5     6    1
     6     6     7    1
     7     7     8    1
     8     7     9    1
     9     9    10    1
    10     9    11    1
    11    11    12    1
    12    12    13    1
    13    11    14    1
    14    14    15    1
    15    15    16    1
    16    16    17    1
    17    17    18   ar
    18    18    19   ar
    19    19    20    1
    20    19    21   ar
    21    21    22    1
    22    22    23    2
    23    22    24    1
    24    24    25    1
    25    25    26    1
    26    26    27    1
    27    27    28   ar
    28    25    29    1
    29    29    30   ar
    30    30    31   ar
    31    31    32   ar
    32    32    33    1
    33    32    34   ar
    34    34    35   ar
    35     4    36    1
    36    36    37    1
    37    36    38    1
    38    38    39    1
    39    38    40    1
    40    40    41    1
    41    40     2    1
    42    15     6    1
    43    28    17   ar
    44    35    29   ar
    45    27    21   ar
    46     1    42    1
    47     1    43    1
    48     1    44    1
    49     2    45    1
    50     4    46    1
    51     6    47    1
    52     7    48    1
    53     8    49    1
    54     9    50    1
    55    10    51    1
    56    11    52    1
    57    12    53    1
    58    12    54    1
    59    13    55    1
    60    15    56    1
    61    18    57    1
    62    20    58    1
    63    24    59    1
    64    24    60    1
    65    25    61    1
    66    28    62    1
    67    30    63    1
    68    31    64    1
    69    33    65    1
    70    34    66    1
    71    35    67    1
    72    36    68    1
    73    37    69    1
    74    38    70    1
    75    39    71    1
    76    40    72    1
    77    41    73    1
