@<TRIPOS>MOLECULE
Narirutin
 73 77 0 0 0
SMALL
GASTEIGER

@<TRIPOS>ATOM
      1 C          -6.3508   -2.1957   -0.7547 C.3     1  UNL1       -0.0361
      2 C          -5.9476   -1.0721   -1.7257 C.3     1  UNL1        0.0873
      3 O          -4.5823   -0.7010   -1.5888 O.3     1  UNL1       -0.3431
      4 C          -4.3304    0.0276   -0.3954 C.3     1  UNL1        0.1879
      5 O          -2.9462    0.3058   -0.3106 O.3     1  UNL1       -0.3461
      6 C          -2.1985   -0.8685   -0.0373 C.3     1  UNL1        0.0796
      7 C          -1.4263   -0.7124    1.2800 C.3     1  UNL1        0.1144
      8 O          -0.6088    0.4431    1.1893 O.3     1  UNL1       -0.3313
      9 C           0.2643    0.5248    2.3031 C.3     1  UNL1        0.2308
     10 O           1.1487    1.6294    2.1200 O.3     1  UNL1       -0.4606
     11 C           2.1076    1.7283    1.0996 C.ar    1  UNL1        0.1310
     12 C           2.8824    2.8903    1.0305 C.ar    1  UNL1        0.0226
     13 C           3.8503    3.0517    0.0291 C.ar    1  UNL1        0.1343
     14 O           4.5973    4.2284   -0.0249 O.3     1  UNL1       -0.5058
     15 C           4.0521    2.0278   -0.9189 C.ar    1  UNL1        0.1007
     16 C           5.0344    2.1396   -2.0192 C.2     1  UNL1        0.1740
     17 O           5.8923    3.0627   -2.0386 O.2     1  UNL1       -0.2917
     18 C           4.9659    1.1720   -3.1633 C.3     1  UNL1        0.0520
     19 C           4.5843   -0.2391   -2.6790 C.3     1  UNL1        0.1322
     20 O           3.4973   -0.1999   -1.7447 O.3     1  UNL1       -0.4828
     21 C           3.2872    0.8502   -0.8391 C.ar    1  UNL1        0.1389
     22 C           2.3162    0.7068    0.1554 C.ar    1  UNL1        0.0229
     23 C           5.7833   -0.9740   -2.1072 C.ar    1  UNL1       -0.0067
     24 C           6.1641   -0.8393   -0.7579 C.ar    1  UNL1       -0.0516
     25 C           7.2955   -1.5008   -0.2712 C.ar    1  UNL1       -0.0198
     26 C           8.0693   -2.2960   -1.1254 C.ar    1  UNL1        0.1169
     27 O           9.1983   -2.9594   -0.6504 O.3     1  UNL1       -0.5068
     28 C           7.7078   -2.4232   -2.4690 C.ar    1  UNL1       -0.0198
     29 C           6.5773   -1.7632   -2.9592 C.ar    1  UNL1       -0.0516
     30 C          -0.5479    0.7485    3.5932 C.3     1  UNL1        0.1454
     31 O           0.2984    0.8560    4.7111 O.3     1  UNL1       -0.3829
     32 C          -1.5639   -0.3979    3.7793 C.3     1  UNL1        0.1152
     33 O          -2.4036   -0.1488    4.8795 O.3     1  UNL1       -0.3864
     34 C          -2.3851   -0.6017    2.4897 C.3     1  UNL1        0.1120
     35 O          -3.1511   -1.7746    2.5962 O.3     1  UNL1       -0.3865
     36 C          -5.0859    1.3642   -0.4114 C.3     1  UNL1        0.1341
     37 O          -4.8024    2.0761    0.7661 O.3     1  UNL1       -0.3841
     38 C          -6.5996    1.1176   -0.5312 C.3     1  UNL1        0.1140
     39 O          -7.0919    0.5994    0.6792 O.3     1  UNL1       -0.3864
     40 C          -6.9075    0.1497   -1.6958 C.3     1  UNL1        0.1095
     41 O          -6.8716    0.8376   -2.9233 O.3     1  UNL1       -0.3866
     42 H          -7.3214   -2.6343   -1.0702 H       1  UNL1        0.0255
     43 H          -6.4645   -1.8332    0.2856 H       1  UNL1        0.0255
     44 H          -5.5838   -2.9986   -0.7713 H       1  UNL1        0.0255
     45 H          -6.0455   -1.5219   -2.7383 H       1  UNL1        0.0621
     46 H          -4.6490   -0.5416    0.5084 H       1  UNL1        0.0937
     47 H          -2.7985   -1.8102   -0.0106 H       1  UNL1        0.0587
     48 H          -1.4609   -1.0006   -0.8576 H       1  UNL1        0.0587
     49 H          -0.7958   -1.6265    1.3916 H       1  UNL1        0.0647
     50 H           0.8760   -0.4029    2.4031 H       1  UNL1        0.1084
     51 H           2.7247    3.6770    1.7579 H       1  UNL1        0.0691
     52 H           4.4629    4.9754    0.6466 H       1  UNL1        0.2922
     53 H           4.1897    1.5332   -3.8716 H       1  UNL1        0.0385
     54 H           5.9352    1.1452   -3.7087 H       1  UNL1        0.0385
     55 H           4.2233   -0.8078   -3.5640 H       1  UNL1        0.0789
     56 H           1.7427   -0.2092    0.1889 H       1  UNL1        0.0691
     57 H           5.5959   -0.2261   -0.0746 H       1  UNL1        0.0623
     58 H           7.5720   -1.3914    0.7697 H       1  UNL1        0.0654
     59 H           9.4870   -2.8863    0.3182 H       1  UNL1        0.2921
     60 H           8.3061   -3.0311   -3.1358 H       1  UNL1        0.0654
     61 H           6.3222   -1.8665   -4.0067 H       1  UNL1        0.0623
     62 H          -1.1026    1.7074    3.4885 H       1  UNL1        0.0683
     63 H           0.8088    0.0075    4.7862 H       1  UNL1        0.2102
     64 H          -1.0045   -1.3380    3.9852 H       1  UNL1        0.0648
     65 H          -2.9089    0.6850    4.6911 H       1  UNL1        0.2100
     66 H          -3.0499    0.2813    2.3366 H       1  UNL1        0.0647
     67 H          -3.9596   -1.5428    3.1237 H       1  UNL1        0.2100
     68 H          -4.7344    1.9531   -1.2907 H       1  UNL1        0.0671
     69 H          -5.0943    3.0124    0.6114 H       1  UNL1        0.2101
     70 H          -7.0931    2.0976   -0.7338 H       1  UNL1        0.0648
     71 H          -8.0760    0.7310    0.6702 H       1  UNL1        0.2100
     72 H          -7.9486   -0.2226   -1.5754 H       1  UNL1        0.0646
     73 H          -5.9281    1.0796   -3.1127 H       1  UNL1        0.2100
@<TRIPOS>BOND
     1     1     2    1
     2     2     3    1
     3     3     4    1
     4     4     5    1
     5     5     6    1
     6     6     7    1
     7     7     8    1
     8     8     9    1
     9     9    10    1
    10    10    11    1
    11    11    12   ar
    12    12    13   ar
    13    13    14    1
    14    13    15   ar
    15    15    16    1
    16    16    17    2
    17    16    18    1
    18    18    19    1
    19    19    20    1
    20    20    21    1
    21    21    22   ar
    22    19    23    1
    23    23    24   ar
    24    24    25   ar
    25    25    26   ar
    26    26    27    1
    27    26    28   ar
    28    28    29   ar
    29     9    30    1
    30    30    31    1
    31    30    32    1
    32    32    33    1
    33    32    34    1
    34    34    35    1
    35     4    36    1
    36    36    37    1
    37    36    38    1
    38    38    39    1
    39    38    40    1
    40    40    41    1
    41    40     2    1
    42    34     7    1
    43    22    11   ar
    44    29    23   ar
    45    21    15   ar
    46     1    42    1
    47     1    43    1
    48     1    44    1
    49     2    45    1
    50     4    46    1
    51     6    47    1
    52     6    48    1
    53     7    49    1
    54     9    50    1
    55    12    51    1
    56    14    52    1
    57    18    53    1
    58    18    54    1
    59    19    55    1
    60    22    56    1
    61    24    57    1
    62    25    58    1
    63    27    59    1
    64    28    60    1
    65    29    61    1
    66    30    62    1
    67    31    63    1
    68    32    64    1
    69    33    65    1
    70    34    66    1
    71    35    67    1
    72    36    68    1
    73    37    69    1
    74    38    70    1
    75    39    71    1
    76    40    72    1
    77    41    73    1
