@<TRIPOS>MOLECULE
Neoeriocitrin
 74 78 0 0 0
SMALL
GASTEIGER

@<TRIPOS>ATOM
      1 C          -2.6163   -2.9341    1.8161 C.3     1  UNL1       -0.0361
      2 C          -2.3093   -3.0056    0.3163 C.3     1  UNL1        0.0873
      3 O          -2.2839   -1.6972   -0.2461 O.3     1  UNL1       -0.3431
      4 C          -3.5589   -1.2968   -0.7207 C.3     1  UNL1        0.1885
      5 O          -3.5269    0.0772   -1.0561 O.3     1  UNL1       -0.3366
      6 C          -3.4386    0.8944    0.1025 C.3     1  UNL1        0.1519
      7 C          -4.6981    1.7739    0.1959 C.3     1  UNL1        0.1155
      8 O          -5.8182    0.9813    0.4950 O.3     1  UNL1       -0.3863
      9 C          -4.5232    2.8389    1.2952 C.3     1  UNL1        0.1120
     10 O          -5.6120    3.7294    1.2896 O.3     1  UNL1       -0.3865
     11 C          -3.1740    3.5838    1.1108 C.3     1  UNL1        0.1140
     12 C          -2.9225    4.5838    2.2512 C.3     1  UNL1        0.0731
     13 O          -3.8400    5.6437    2.2115 O.3     1  UNL1       -0.3924
     14 O          -2.1057    2.6525    1.1063 O.3     1  UNL1       -0.3313
     15 C          -2.1971    1.7936   -0.0173 C.3     1  UNL1        0.2312
     16 O          -1.0384    0.9629   -0.0599 O.3     1  UNL1       -0.4606
     17 C           0.2704    1.4153   -0.2840 C.ar    1  UNL1        0.1310
     18 C           0.5765    2.7686   -0.5108 C.ar    1  UNL1        0.0226
     19 C           1.8988    3.1828   -0.7127 C.ar    1  UNL1        0.1343
     20 O           2.1294    4.5549   -0.8356 O.3     1  UNL1       -0.5058
     21 C           2.9372    2.2168   -0.7489 C.ar    1  UNL1        0.1007
     22 C           4.3602    2.5337   -1.0257 C.2     1  UNL1        0.1740
     23 O           4.6999    3.5826   -1.6343 O.2     1  UNL1       -0.2917
     24 C           5.4118    1.5423   -0.6254 C.3     1  UNL1        0.0520
     25 C           4.9443    0.1312   -1.0090 C.3     1  UNL1        0.1323
     26 O           3.6264   -0.1150   -0.5100 O.3     1  UNL1       -0.4828
     27 C           2.6214    0.8622   -0.5139 C.ar    1  UNL1        0.1389
     28 C           1.3018    0.4754   -0.2742 C.ar    1  UNL1        0.0229
     29 C           5.9004   -0.9101   -0.4805 C.ar    1  UNL1       -0.0033
     30 C           6.8744   -1.4691   -1.3245 C.ar    1  UNL1       -0.0099
     31 C           7.7858   -2.4149   -0.8321 C.ar    1  UNL1        0.1586
     32 O           8.7442   -2.9705   -1.6783 O.3     1  UNL1       -0.5033
     33 C           7.7316   -2.7995    0.5184 C.ar    1  UNL1        0.1582
     34 O           8.6226   -3.7382    1.0375 O.3     1  UNL1       -0.5033
     35 C           6.7721   -2.2332    1.3634 C.ar    1  UNL1       -0.0162
     36 C           5.8655   -1.2909    0.8715 C.ar    1  UNL1       -0.0514
     37 C          -3.9284   -2.1055   -1.9827 C.3     1  UNL1        0.1341
     38 O          -5.3272   -2.0931   -2.1300 O.3     1  UNL1       -0.3841
     39 C          -3.3925   -3.5586   -1.8964 C.3     1  UNL1        0.1140
     40 O          -4.2435   -4.4362   -2.5911 O.3     1  UNL1       -0.3864
     41 C          -3.2526   -3.9972   -0.4297 C.3     1  UNL1        0.1095
     42 O          -2.7279   -5.2992   -0.3755 O.3     1  UNL1       -0.3866
     43 H          -2.4899   -3.9340    2.2820 H       1  UNL1        0.0255
     44 H          -3.6547   -2.5857    1.9950 H       1  UNL1        0.0255
     45 H          -1.9155   -2.2269    2.3085 H       1  UNL1        0.0255
     46 H          -1.2732   -3.3995    0.2224 H       1  UNL1        0.0621
     47 H          -4.3478   -1.4753    0.0515 H       1  UNL1        0.0938
     48 H          -3.3424    0.3199    1.0583 H       1  UNL1        0.0687
     49 H          -4.8505    2.2927   -0.7813 H       1  UNL1        0.0648
     50 H          -6.1002    0.5488   -0.3531 H       1  UNL1        0.2100
     51 H          -4.5075    2.3223    2.2810 H       1  UNL1        0.0647
     52 H          -5.6027    4.2108    0.4210 H       1  UNL1        0.2100
     53 H          -3.1833    4.1602    0.1555 H       1  UNL1        0.0647
     54 H          -3.0099    4.0686    3.2317 H       1  UNL1        0.0584
     55 H          -1.8843    4.9817    2.1778 H       1  UNL1        0.0584
     56 H          -3.5638    6.2313    1.4604 H       1  UNL1        0.2095
     57 H          -2.2498    2.3737   -0.9691 H       1  UNL1        0.1084
     58 H          -0.2026    3.5187   -0.5040 H       1  UNL1        0.0691
     59 H           3.0431    4.9808   -0.7829 H       1  UNL1        0.2922
     60 H           6.3739    1.7713   -1.1345 H       1  UNL1        0.0385
     61 H           5.5648    1.6136    0.4734 H       1  UNL1        0.0385
     62 H           4.9008    0.0689   -2.1199 H       1  UNL1        0.0789
     63 H           1.0741   -0.5681   -0.0938 H       1  UNL1        0.0691
     64 H           6.9273   -1.1702   -2.3642 H       1  UNL1        0.0659
     65 H           8.8047   -2.7097   -2.6557 H       1  UNL1        0.2923
     66 H           9.3356   -4.1763    0.4667 H       1  UNL1        0.2923
     67 H           6.7315   -2.5219    2.4060 H       1  UNL1        0.0655
     68 H           5.1375   -0.8565    1.5455 H       1  UNL1        0.0623
     69 H          -3.4517   -1.6163   -2.8666 H       1  UNL1        0.0671
     70 H          -5.5190   -2.1937   -3.0991 H       1  UNL1        0.2101
     71 H          -2.3780   -3.5754   -2.3641 H       1  UNL1        0.0648
     72 H          -3.7042   -5.2337   -2.8338 H       1  UNL1        0.2100
     73 H          -4.2711   -3.9841    0.0280 H       1  UNL1        0.0646
     74 H          -2.9303   -5.6521    0.5297 H       1  UNL1        0.2100
@<TRIPOS>BOND
     1     1     2    1
     2     2     3    1
     3     3     4    1
     4     4     5    1
     5     5     6    1
     6     6     7    1
     7     7     8    1
     8     7     9    1
     9     9    10    1
    10     9    11    1
    11    11    12    1
    12    12    13    1
    13    11    14    1
    14    14    15    1
    15    15    16    1
    16    16    17    1
    17    17    18   ar
    18    18    19   ar
    19    19    20    1
    20    19    21   ar
    21    21    22    1
    22    22    23    2
    23    22    24    1
    24    24    25    1
    25    25    26    1
    26    26    27    1
    27    27    28   ar
    28    25    29    1
    29    29    30   ar
    30    30    31   ar
    31    31    32    1
    32    31    33   ar
    33    33    34    1
    34    33    35   ar
    35    35    36   ar
    36     4    37    1
    37    37    38    1
    38    37    39    1
    39    39    40    1
    40    39    41    1
    41    41    42    1
    42    41     2    1
    43    15     6    1
    44    28    17   ar
    45    36    29   ar
    46    27    21   ar
    47     1    43    1
    48     1    44    1
    49     1    45    1
    50     2    46    1
    51     4    47    1
    52     6    48    1
    53     7    49    1
    54     8    50    1
    55     9    51    1
    56    10    52    1
    57    11    53    1
    58    12    54    1
    59    12    55    1
    60    13    56    1
    61    15    57    1
    62    18    58    1
    63    20    59    1
    64    24    60    1
    65    24    61    1
    66    25    62    1
    67    28    63    1
    68    30    64    1
    69    32    65    1
    70    34    66    1
    71    35    67    1
    72    36    68    1
    73    37    69    1
    74    38    70    1
    75    39    71    1
    76    40    72    1
    77    41    73    1
    78    42    74    1
