@<TRIPOS>MOLECULE
Neohesperidin
 77 81 0 0 0
SMALL
GASTEIGER

@<TRIPOS>ATOM
      1 C           6.4412   -6.4055    2.1253 C.3     1  UNL1        0.0790
      2 O           5.8913   -5.0944    2.0464 O.3     1  UNL1       -0.4915
      3 C           5.1991   -4.5895    0.9346 C.ar    1  UNL1        0.1613
      4 C           4.7098   -3.2777    0.9900 C.ar    1  UNL1        0.1588
      5 O           4.9241   -2.5123    2.1353 O.3     1  UNL1       -0.5033
      6 C           4.0117   -2.7373   -0.0991 C.ar    1  UNL1       -0.0098
      7 C           3.7828   -3.5043   -1.2560 C.ar    1  UNL1       -0.0033
      8 C           4.2905   -4.8128   -1.3108 C.ar    1  UNL1       -0.0514
      9 C           4.9859   -5.3538   -0.2270 C.ar    1  UNL1       -0.0159
     10 C           3.0653   -2.9346   -2.4668 C.3     1  UNL1        0.1323
     11 C           4.0411   -2.2081   -3.4110 C.3     1  UNL1        0.0520
     12 C           4.3448   -0.8239   -2.9195 C.2     1  UNL1        0.1740
     13 O           5.4959   -0.3421   -3.0964 O.2     1  UNL1       -0.2917
     14 C           3.2680   -0.0281   -2.2908 C.ar    1  UNL1        0.1007
     15 C           3.3759    1.3604   -2.0713 C.ar    1  UNL1        0.1343
     16 O           4.5332    2.0501   -2.4323 O.3     1  UNL1       -0.5058
     17 C           2.3055    2.0573   -1.4933 C.ar    1  UNL1        0.0226
     18 C           1.1266    1.3954   -1.1372 C.ar    1  UNL1        0.1310
     19 O           0.0874    2.1510   -0.5733 O.3     1  UNL1       -0.4606
     20 C          -1.2076    1.6461   -0.2400 C.3     1  UNL1        0.2312
     21 O          -1.8452    1.1280   -1.4020 O.3     1  UNL1       -0.3313
     22 C          -2.6161    2.0677   -2.1491 C.3     1  UNL1        0.1140
     23 C          -2.5499    1.6676   -3.6313 C.3     1  UNL1        0.0731
     24 O          -2.9923    0.3474   -3.8026 O.3     1  UNL1       -0.3924
     25 C          -2.1759    3.5436   -1.9573 C.3     1  UNL1        0.1120
     26 O          -3.0044    4.4027   -2.7023 O.3     1  UNL1       -0.3865
     27 C          -2.2609    3.9426   -0.4665 C.3     1  UNL1        0.1155
     28 O          -1.3096    4.9390   -0.1894 O.3     1  UNL1       -0.3863
     29 C          -2.0280    2.7349    0.4735 C.3     1  UNL1        0.1519
     30 O          -3.2744    2.1710    0.8537 O.3     1  UNL1       -0.3366
     31 C          -3.7115    2.6764    2.1061 C.3     1  UNL1        0.1885
     32 O          -2.9711    2.1092    3.1796 O.3     1  UNL1       -0.3431
     33 C          -3.1135    0.6977    3.2286 C.3     1  UNL1        0.0873
     34 C          -2.1853    0.1624    4.3197 C.3     1  UNL1       -0.0361
     35 C          -4.5829    0.3043    3.5180 C.3     1  UNL1        0.1095
     36 O          -4.7388   -1.0936    3.5601 O.3     1  UNL1       -0.3866
     37 C          -5.5146    0.9159    2.4561 C.3     1  UNL1        0.1140
     38 O          -6.8523    0.7154    2.8333 O.3     1  UNL1       -0.3864
     39 C          -5.2253    2.4204    2.2729 C.3     1  UNL1        0.1341
     40 O          -5.7564    3.1787    3.3340 O.3     1  UNL1       -0.3841
     41 C           1.0257    0.0093   -1.3511 C.ar    1  UNL1        0.0229
     42 C           2.0907   -0.6989   -1.9135 C.ar    1  UNL1        0.1389
     43 O           1.9753   -2.0865   -2.0811 O.3     1  UNL1       -0.4828
     44 H           6.9290   -6.5351    3.1130 H       1  UNL1        0.0660
     45 H           5.6364   -7.1639    2.0240 H       1  UNL1        0.0660
     46 H           7.2038   -6.5481    1.3308 H       1  UNL1        0.0660
     47 H           4.5849   -1.5601    2.2089 H       1  UNL1        0.2923
     48 H           3.6550   -1.7206   -0.0309 H       1  UNL1        0.0659
     49 H           4.1497   -5.4179   -2.1981 H       1  UNL1        0.0623
     50 H           5.3568   -6.3666   -0.3046 H       1  UNL1        0.0655
     51 H           2.6232   -3.7826   -3.0346 H       1  UNL1        0.0789
     52 H           4.9792   -2.7952   -3.5244 H       1  UNL1        0.0385
     53 H           3.5741   -2.1204   -4.4155 H       1  UNL1        0.0385
     54 H           4.6260    3.0483   -2.2843 H       1  UNL1        0.2922
     55 H           2.3853    3.1245   -1.3271 H       1  UNL1        0.0691
     56 H          -1.0785    0.8106    0.4819 H       1  UNL1        0.1084
     57 H          -3.6780    1.9763   -1.8280 H       1  UNL1        0.0647
     58 H          -1.5100    1.7850   -4.0159 H       1  UNL1        0.0584
     59 H          -3.2104    2.3279   -4.2316 H       1  UNL1        0.0584
     60 H          -2.2154   -0.2427   -3.6181 H       1  UNL1        0.2095
     61 H          -1.1150    3.6408   -2.2953 H       1  UNL1        0.0647
     62 H          -2.5369    4.5991   -3.5558 H       1  UNL1        0.2100
     63 H          -3.2788    4.3497   -0.2561 H       1  UNL1        0.0648
     64 H          -1.6403    5.7766   -0.6078 H       1  UNL1        0.2100
     65 H          -1.4258    3.0591    1.3581 H       1  UNL1        0.0687
     66 H          -3.5778    3.7831    2.1416 H       1  UNL1        0.0938
     67 H          -2.7819    0.2367    2.2705 H       1  UNL1        0.0621
     68 H          -2.2262   -0.9468    4.3584 H       1  UNL1        0.0255
     69 H          -1.1388    0.4638    4.1008 H       1  UNL1        0.0255
     70 H          -2.4731    0.5731    5.3111 H       1  UNL1        0.0255
     71 H          -4.8679    0.7046    4.5156 H       1  UNL1        0.0646
     72 H          -4.4481   -1.4573    2.6829 H       1  UNL1        0.2100
     73 H          -5.3231    0.4020    1.4839 H       1  UNL1        0.0648
     74 H          -7.4057    0.8932    2.0283 H       1  UNL1        0.2100
     75 H          -5.7339    2.7570    1.3428 H       1  UNL1        0.0671
     76 H          -5.2284    2.9822    4.1503 H       1  UNL1        0.2101
     77 H           0.1348   -0.5349   -1.0706 H       1  UNL1        0.0691
@<TRIPOS>BOND
     1     1     2    1
     2     2     3    1
     3     3     4   ar
     4     4     5    1
     5     4     6   ar
     6     6     7   ar
     7     7     8   ar
     8     8     9   ar
     9     7    10    1
    10    10    11    1
    11    11    12    1
    12    12    13    2
    13    12    14    1
    14    14    15   ar
    15    15    16    1
    16    15    17   ar
    17    17    18   ar
    18    18    19    1
    19    19    20    1
    20    20    21    1
    21    21    22    1
    22    22    23    1
    23    23    24    1
    24    22    25    1
    25    25    26    1
    26    25    27    1
    27    27    28    1
    28    27    29    1
    29    29    30    1
    30    30    31    1
    31    31    32    1
    32    32    33    1
    33    33    34    1
    34    33    35    1
    35    35    36    1
    36    35    37    1
    37    37    38    1
    38    37    39    1
    39    39    40    1
    40    18    41   ar
    41    41    42   ar
    42    42    43    1
    43     9     3   ar
    44    43    10    1
    45    42    14   ar
    46    29    20    1
    47    39    31    1
    48     1    44    1
    49     1    45    1
    50     1    46    1
    51     5    47    1
    52     6    48    1
    53     8    49    1
    54     9    50    1
    55    10    51    1
    56    11    52    1
    57    11    53    1
    58    16    54    1
    59    17    55    1
    60    20    56    1
    61    22    57    1
    62    23    58    1
    63    23    59    1
    64    24    60    1
    65    25    61    1
    66    26    62    1
    67    27    63    1
    68    28    64    1
    69    29    65    1
    70    31    66    1
    71    33    67    1
    72    34    68    1
    73    34    69    1
    74    34    70    1
    75    35    71    1
    76    36    72    1
    77    37    73    1
    78    38    74    1
    79    39    75    1
    80    40    76    1
    81    41    77    1
