@<TRIPOS>MOLECULE
Poncirin
 76 80 0 0 0
SMALL
GASTEIGER

@<TRIPOS>ATOM
      1 C           8.5773    1.5337    3.3426 C.3     1  UNL1        0.0788
      2 O           8.8956    1.0388    2.0460 O.3     1  UNL1       -0.4951
      3 C           7.9440    0.6555    1.0892 C.ar    1  UNL1        0.1201
      4 C           8.3965    0.1869   -0.1481 C.ar    1  UNL1       -0.0196
      5 C           7.4884   -0.2075   -1.1342 C.ar    1  UNL1       -0.0516
      6 C           6.1043   -0.1518   -0.8963 C.ar    1  UNL1       -0.0067
      7 C           5.6500    0.3347    0.3437 C.ar    1  UNL1       -0.0516
      8 C           6.5598    0.7289    1.3291 C.ar    1  UNL1       -0.0196
      9 C           5.1435   -0.5499   -2.0022 C.3     1  UNL1        0.1322
     10 C           4.7520    0.6595   -2.8716 C.3     1  UNL1        0.0520
     11 C           3.6818    1.4787   -2.2133 C.2     1  UNL1        0.1740
     12 O           3.6828    2.7307   -2.3575 O.2     1  UNL1       -0.2917
     13 C           2.6102    0.7939   -1.4577 C.ar    1  UNL1        0.1007
     14 C           1.4214    1.4419   -1.0645 C.ar    1  UNL1        0.1343
     15 O           1.2147    2.7884   -1.3643 O.3     1  UNL1       -0.5058
     16 C           0.4332    0.7254   -0.3733 C.ar    1  UNL1        0.0226
     17 C           0.6122   -0.6397   -0.0785 C.ar    1  UNL1        0.1310
     18 O          -0.3487   -1.4078    0.6001 O.3     1  UNL1       -0.4606
     19 C          -1.6843   -1.0005    0.9131 C.3     1  UNL1        0.2312
     20 O          -2.2060   -1.8650    1.9155 O.3     1  UNL1       -0.3313
     21 C          -2.9207   -3.0030    1.4370 C.3     1  UNL1        0.1140
     22 C          -2.7586   -4.1236    2.4797 C.3     1  UNL1        0.0731
     23 O          -3.6608   -5.1726    2.2496 O.3     1  UNL1       -0.3924
     24 C          -2.4737   -3.4725    0.0271 C.3     1  UNL1        0.1120
     25 O          -3.2097   -4.6030   -0.3656 O.3     1  UNL1       -0.3865
     26 C          -2.6786   -2.3416   -1.0048 C.3     1  UNL1        0.1155
     27 O          -1.7295   -2.4867   -2.0308 O.3     1  UNL1       -0.3863
     28 C          -2.5579   -0.9376   -0.3602 C.3     1  UNL1        0.1519
     29 O          -3.8438   -0.4624    0.0092 O.3     1  UNL1       -0.3366
     30 C          -4.3986    0.3697   -0.9985 C.3     1  UNL1        0.1885
     31 O          -3.7597    1.6400   -1.0325 O.3     1  UNL1       -0.3431
     32 C          -3.8982    2.3314    0.1993 C.3     1  UNL1        0.0873
     33 C          -3.0754    3.6179    0.1192 C.3     1  UNL1       -0.0361
     34 C          -5.3863    2.6505    0.4849 C.3     1  UNL1        0.1095
     35 O          -5.5378    3.3273    1.7093 O.3     1  UNL1       -0.3866
     36 C          -6.2172    1.3546    0.4823 C.3     1  UNL1        0.1140
     37 O          -7.5833    1.6724    0.5495 O.3     1  UNL1       -0.3864
     38 C          -5.9199    0.5141   -0.7770 C.3     1  UNL1        0.1341
     39 O          -6.5518    1.0519   -1.9148 O.3     1  UNL1       -0.3841
     40 C           1.7989   -1.2692   -0.4634 C.ar    1  UNL1        0.0229
     41 C           2.7968   -0.5626   -1.1383 C.ar    1  UNL1        0.1389
     42 O           3.9882   -1.2192   -1.4792 O.3     1  UNL1       -0.4828
     43 H           7.9847    2.4692    3.2593 H       1  UNL1        0.0660
     44 H           8.0084    0.7700    3.9137 H       1  UNL1        0.0660
     45 H           9.5180    1.7563    3.8866 H       1  UNL1        0.0660
     46 H           9.4591    0.1318   -0.3484 H       1  UNL1        0.0654
     47 H           7.8672   -0.5552   -2.0874 H       1  UNL1        0.0623
     48 H           4.5951    0.4147    0.5598 H       1  UNL1        0.0623
     49 H           6.1759    1.0928    2.2724 H       1  UNL1        0.0654
     50 H           5.6626   -1.2793   -2.6621 H       1  UNL1        0.0789
     51 H           4.3547    0.2931   -3.8426 H       1  UNL1        0.0385
     52 H           5.6451    1.2869   -3.0868 H       1  UNL1        0.0385
     53 H           0.3658    3.2708   -1.0937 H       1  UNL1        0.2922
     54 H          -0.4665    1.2442   -0.0769 H       1  UNL1        0.0691
     55 H          -1.6518    0.0121    1.3665 H       1  UNL1        0.1084
     56 H          -4.0007   -2.7360    1.3967 H       1  UNL1        0.0647
     57 H          -2.9175   -3.7119    3.5030 H       1  UNL1        0.0584
     58 H          -1.7228   -4.5239    2.4437 H       1  UNL1        0.0584
     59 H          -4.5525   -4.8512    2.5449 H       1  UNL1        0.2095
     60 H          -1.3913   -3.7389    0.0843 H       1  UNL1        0.0647
     61 H          -2.7198   -5.0137   -1.1253 H       1  UNL1        0.2100
     62 H          -3.7016   -2.4478   -1.4393 H       1  UNL1        0.0648
     63 H          -2.0637   -1.9667   -2.8080 H       1  UNL1        0.2100
     64 H          -2.0524   -0.2484   -1.0770 H       1  UNL1        0.0687
     65 H          -4.2731   -0.1062   -1.9992 H       1  UNL1        0.0938
     66 H          -3.4741    1.7307    1.0357 H       1  UNL1        0.0621
     67 H          -3.1149    4.1682    1.0830 H       1  UNL1        0.0255
     68 H          -3.4573    4.2741   -0.6919 H       1  UNL1        0.0255
     69 H          -2.0146    3.3702   -0.0953 H       1  UNL1        0.0255
     70 H          -5.7664    3.3193   -0.3182 H       1  UNL1        0.0646
     71 H          -5.1633    2.7481    2.4238 H       1  UNL1        0.2100
     72 H          -5.9324    0.7538    1.3790 H       1  UNL1        0.0648
     73 H          -8.0595    0.8357    0.7928 H       1  UNL1        0.2100
     74 H          -6.3408   -0.5031   -0.6183 H       1  UNL1        0.0671
     75 H          -6.1016    1.9051   -2.1454 H       1  UNL1        0.2101
     76 H           1.9506   -2.3155   -0.2290 H       1  UNL1        0.0691
@<TRIPOS>BOND
     1     1     2    1
     2     2     3    1
     3     3     4   ar
     4     4     5   ar
     5     5     6   ar
     6     6     7   ar
     7     7     8   ar
     8     6     9    1
     9     9    10    1
    10    10    11    1
    11    11    12    2
    12    11    13    1
    13    13    14   ar
    14    14    15    1
    15    14    16   ar
    16    16    17   ar
    17    17    18    1
    18    18    19    1
    19    19    20    1
    20    20    21    1
    21    21    22    1
    22    22    23    1
    23    21    24    1
    24    24    25    1
    25    24    26    1
    26    26    27    1
    27    26    28    1
    28    28    29    1
    29    29    30    1
    30    30    31    1
    31    31    32    1
    32    32    33    1
    33    32    34    1
    34    34    35    1
    35    34    36    1
    36    36    37    1
    37    36    38    1
    38    38    39    1
    39    17    40   ar
    40    40    41   ar
    41    41    42    1
    42     8     3   ar
    43    42     9    1
    44    41    13   ar
    45    28    19    1
    46    38    30    1
    47     1    43    1
    48     1    44    1
    49     1    45    1
    50     4    46    1
    51     5    47    1
    52     7    48    1
    53     8    49    1
    54     9    50    1
    55    10    51    1
    56    10    52    1
    57    15    53    1
    58    16    54    1
    59    19    55    1
    60    21    56    1
    61    22    57    1
    62    22    58    1
    63    23    59    1
    64    24    60    1
    65    25    61    1
    66    26    62    1
    67    27    63    1
    68    28    64    1
    69    30    65    1
    70    32    66    1
    71    33    67    1
    72    33    68    1
    73    33    69    1
    74    34    70    1
    75    35    71    1
    76    36    72    1
    77    37    73    1
    78    38    74    1
    79    39    75    1
    80    40    76    1
