@<TRIPOS>MOLECULE
Didymin
 76 80 0 0 0
SMALL
GASTEIGER

@<TRIPOS>ATOM
      1 C           8.4099    3.0959   -3.4736 C.3     1  UNL1        0.0788
      2 O           7.5481    2.0675   -2.9971 O.3     1  UNL1       -0.4951
      3 C           6.6122    2.2336   -1.9655 C.ar    1  UNL1        0.1201
      4 C           6.4385    3.4568   -1.2929 C.ar    1  UNL1       -0.0196
      5 C           5.4914    3.5713   -0.2714 C.ar    1  UNL1       -0.0516
      6 C           4.6914    2.4740    0.0916 C.ar    1  UNL1       -0.0067
      7 C           4.8810    1.2489   -0.5743 C.ar    1  UNL1       -0.0516
      8 C           5.8284    1.1361   -1.5956 C.ar    1  UNL1       -0.0196
      9 C           3.6999    2.6221    1.2315 C.3     1  UNL1        0.1322
     10 C           4.3336    2.2440    2.5832 C.3     1  UNL1        0.0520
     11 C           4.3577    0.7566    2.7758 C.2     1  UNL1        0.1740
     12 O           5.3235    0.2264    3.3878 O.2     1  UNL1       -0.2917
     13 C           3.2158   -0.0523    2.2966 C.ar    1  UNL1        0.1007
     14 C           3.0114   -1.3909    2.6903 C.ar    1  UNL1        0.1343
     15 O           3.9072   -2.0219    3.5536 O.3     1  UNL1       -0.5058
     16 C           1.8923   -2.0927    2.2183 C.ar    1  UNL1        0.0226
     17 C           0.9667   -1.4697    1.3610 C.ar    1  UNL1        0.1310
     18 O          -0.1722   -2.1232    0.8649 O.3     1  UNL1       -0.4606
     19 C          -0.6011   -3.4477    1.2013 C.3     1  UNL1        0.2308
     20 O          -1.5544   -3.9074    0.2553 O.3     1  UNL1       -0.3313
     21 C          -2.7254   -3.0943    0.1710 C.3     1  UNL1        0.1144
     22 C          -2.6112   -2.1117   -1.0069 C.3     1  UNL1        0.0796
     23 O          -3.8745   -1.5263   -1.2768 O.3     1  UNL1       -0.3461
     24 C          -3.8651   -0.1189   -1.0925 C.3     1  UNL1        0.1879
     25 O          -5.1902    0.3104   -0.8049 O.3     1  UNL1       -0.3431
     26 C          -5.9641    0.4299   -1.9840 C.3     1  UNL1        0.0873
     27 C          -7.4411    0.5162   -1.5999 C.3     1  UNL1       -0.0361
     28 C          -5.5245    1.6805   -2.7861 C.3     1  UNL1        0.1095
     29 O          -5.8811    1.5018   -4.1336 O.3     1  UNL1       -0.3866
     30 C          -3.9930    1.9158   -2.6661 C.3     1  UNL1        0.1140
     31 O          -3.7098    2.9141   -1.7136 O.3     1  UNL1       -0.3864
     32 C          -3.2514    0.6000   -2.3393 C.3     1  UNL1        0.1341
     33 O          -1.8695    0.8189   -2.1916 O.3     1  UNL1       -0.3841
     34 C          -3.1105   -2.3848    1.5026 C.3     1  UNL1        0.1120
     35 O          -4.4882   -2.1004    1.5478 O.3     1  UNL1       -0.3865
     36 C          -2.6875   -3.2600    2.6893 C.3     1  UNL1        0.1152
     37 O          -3.0405   -2.6217    3.8895 O.3     1  UNL1       -0.3864
     38 C          -1.1620   -3.5144    2.6472 C.3     1  UNL1        0.1454
     39 O          -0.8797   -4.7787    3.1909 O.3     1  UNL1       -0.3829
     40 C           1.1805   -0.1446    0.9728 C.ar    1  UNL1        0.0229
     41 C           2.2987    0.5600    1.4240 C.ar    1  UNL1        0.1389
     42 O           2.5002    1.8764    0.9848 O.3     1  UNL1       -0.4828
     43 H           9.0711    3.4499   -2.6547 H       1  UNL1        0.0660
     44 H           9.0417    2.6901   -4.2900 H       1  UNL1        0.0660
     45 H           7.8109    3.9410   -3.8740 H       1  UNL1        0.0660
     46 H           7.0325    4.3236   -1.5485 H       1  UNL1        0.0654
     47 H           5.3838    4.5201    0.2399 H       1  UNL1        0.0623
     48 H           4.3038    0.3748   -0.3127 H       1  UNL1        0.0623
     49 H           5.9571    0.1873   -2.1011 H       1  UNL1        0.0654
     50 H           3.4030    3.6922    1.2915 H       1  UNL1        0.0789
     51 H           5.3614    2.6628    2.6595 H       1  UNL1        0.0385
     52 H           3.7273    2.6859    3.4029 H       1  UNL1        0.0385
     53 H           3.7749   -2.9818    3.8502 H       1  UNL1        0.2922
     54 H           1.7516   -3.1168    2.5335 H       1  UNL1        0.0691
     55 H           0.2758   -4.1253    1.1182 H       1  UNL1        0.1084
     56 H          -3.5529   -3.7929   -0.0828 H       1  UNL1        0.0647
     57 H          -2.3083   -2.6852   -1.9086 H       1  UNL1        0.0587
     58 H          -1.7939   -1.3800   -0.8235 H       1  UNL1        0.0587
     59 H          -3.2756    0.1580   -0.1883 H       1  UNL1        0.0937
     60 H          -5.8508   -0.4827   -2.6174 H       1  UNL1        0.0621
     61 H          -7.7432   -0.4085   -1.0638 H       1  UNL1        0.0255
     62 H          -8.0705    0.6183   -2.5096 H       1  UNL1        0.0255
     63 H          -7.6201    1.3866   -0.9329 H       1  UNL1        0.0255
     64 H          -6.0526    2.5785   -2.3838 H       1  UNL1        0.0646
     65 H          -5.8817    2.4017   -4.5534 H       1  UNL1        0.2100
     66 H          -3.6072    2.2862   -3.6414 H       1  UNL1        0.0648
     67 H          -4.0879    2.6267   -0.8428 H       1  UNL1        0.2100
     68 H          -3.3833   -0.0678   -3.2198 H       1  UNL1        0.0671
     69 H          -1.7332    1.3794   -1.3841 H       1  UNL1        0.2101
     70 H          -2.5672   -1.4171    1.5808 H       1  UNL1        0.0647
     71 H          -4.9782   -2.9640    1.5470 H       1  UNL1        0.2100
     72 H          -3.2287   -4.2335    2.6085 H       1  UNL1        0.0648
     73 H          -3.0240   -3.3162    4.5986 H       1  UNL1        0.2100
     74 H          -0.6493   -2.7331    3.2553 H       1  UNL1        0.0683
     75 H          -0.9547   -4.6925    4.1772 H       1  UNL1        0.2102
     76 H           0.4774    0.3382    0.3051 H       1  UNL1        0.0691
@<TRIPOS>BOND
     1     1     2    1
     2     2     3    1
     3     3     4   ar
     4     4     5   ar
     5     5     6   ar
     6     6     7   ar
     7     7     8   ar
     8     6     9    1
     9     9    10    1
    10    10    11    1
    11    11    12    2
    12    11    13    1
    13    13    14   ar
    14    14    15    1
    15    14    16   ar
    16    16    17   ar
    17    17    18    1
    18    18    19    1
    19    19    20    1
    20    20    21    1
    21    21    22    1
    22    22    23    1
    23    23    24    1
    24    24    25    1
    25    25    26    1
    26    26    27    1
    27    26    28    1
    28    28    29    1
    29    28    30    1
    30    30    31    1
    31    30    32    1
    32    32    33    1
    33    21    34    1
    34    34    35    1
    35    34    36    1
    36    36    37    1
    37    36    38    1
    38    38    39    1
    39    17    40   ar
    40    40    41   ar
    41    41    42    1
    42     8     3   ar
    43    42     9    1
    44    41    13   ar
    45    38    19    1
    46    32    24    1
    47     1    43    1
    48     1    44    1
    49     1    45    1
    50     4    46    1
    51     5    47    1
    52     7    48    1
    53     8    49    1
    54     9    50    1
    55    10    51    1
    56    10    52    1
    57    15    53    1
    58    16    54    1
    59    19    55    1
    60    21    56    1
    61    22    57    1
    62    22    58    1
    63    24    59    1
    64    26    60    1
    65    27    61    1
    66    27    62    1
    67    27    63    1
    68    28    64    1
    69    29    65    1
    70    30    66    1
    71    31    67    1
    72    32    68    1
    73    33    69    1
    74    34    70    1
    75    35    71    1
    76    36    72    1
    77    37    73    1
    78    38    74    1
    79    39    75    1
    80    40    76    1
