@<TRIPOS>MOLECULE
Narirutin 4'-O-glucoside
 94 99 0 0 0
SMALL
GASTEIGER

@<TRIPOS>ATOM
      1 C          -5.2640    0.6874   -3.4813 C.3     1  UNL1       -0.0361
      2 C          -5.3437   -0.7817   -3.9035 C.3     1  UNL1        0.0873
      3 O          -4.0870   -1.3958   -3.7001 O.3     1  UNL1       -0.3431
      4 C          -4.2035   -2.8190   -3.6952 C.3     1  UNL1        0.1879
      5 O          -4.6579   -3.2882   -2.4364 O.3     1  UNL1       -0.3461
      6 C          -3.7601   -2.9100   -1.4118 C.3     1  UNL1        0.0796
      7 C          -4.2177   -3.4986   -0.0694 C.3     1  UNL1        0.1144
      8 O          -3.2018   -3.3078    0.9167 O.3     1  UNL1       -0.3313
      9 C          -3.4719   -2.2638    1.8414 C.3     1  UNL1        0.2308
     10 O          -3.5752   -0.9965    1.1826 O.3     1  UNL1       -0.4606
     11 C          -2.5348   -0.3514    0.4965 C.ar    1  UNL1        0.1310
     12 C          -1.2345   -0.8797    0.4217 C.ar    1  UNL1        0.0229
     13 C          -0.2442   -0.2173   -0.3084 C.ar    1  UNL1        0.1389
     14 C          -0.5451    0.9742   -0.9931 C.ar    1  UNL1        0.1007
     15 C           0.5301    1.6020   -1.7915 C.2     1  UNL1        0.1740
     16 O           0.4016    2.7641   -2.2620 O.2     1  UNL1       -0.2917
     17 C           1.7694    0.8148   -2.0976 C.3     1  UNL1        0.0520
     18 C           2.1800   -0.0661   -0.9031 C.3     1  UNL1        0.1322
     19 O           1.0524   -0.7507   -0.3410 O.3     1  UNL1       -0.4828
     20 C           2.9254    0.7357    0.1485 C.ar    1  UNL1       -0.0067
     21 C           2.2513    1.4351    1.1665 C.ar    1  UNL1       -0.0516
     22 C           2.9654    2.1944    2.0974 C.ar    1  UNL1       -0.0195
     23 C           4.3593    2.2815    2.0285 C.ar    1  UNL1        0.1240
     24 O           5.0247    3.0561    2.9914 O.3     1  UNL1       -0.4608
     25 C           6.4415    3.1928    3.1012 C.3     1  UNL1        0.2308
     26 O           7.0051    1.9396    3.4409 O.3     1  UNL1       -0.3313
     27 C           8.4291    1.9458    3.3665 C.3     1  UNL1        0.1140
     28 C           8.9029    1.4181    2.0005 C.3     1  UNL1        0.0731
     29 O           8.3778    0.1405    1.7589 O.3     1  UNL1       -0.3924
     30 C           9.0970    3.3000    3.7647 C.3     1  UNL1        0.1120
     31 O           9.3330    4.0926    2.6261 O.3     1  UNL1       -0.3865
     32 C           8.1955    4.0716    4.7499 C.3     1  UNL1        0.1152
     33 O           8.1921    3.4460    6.0113 O.3     1  UNL1       -0.3864
     34 C           6.7510    4.2328    4.1978 C.3     1  UNL1        0.1454
     35 O           6.5769    5.5191    3.6603 O.3     1  UNL1       -0.3829
     36 C           5.0368    1.6004    1.0015 C.ar    1  UNL1       -0.0195
     37 C           4.3248    0.8401    0.0699 C.ar    1  UNL1       -0.0516
     38 C          -1.8459    1.5116   -0.9120 C.ar    1  UNL1        0.1343
     39 O          -2.1737    2.6884   -1.5850 O.3     1  UNL1       -0.5058
     40 C          -2.8246    0.8486   -0.1593 C.ar    1  UNL1        0.0226
     41 C          -4.7442   -2.5555    2.6744 C.3     1  UNL1        0.1454
     42 O          -5.2452   -1.3631    3.2244 O.3     1  UNL1       -0.3829
     43 C          -5.8510   -3.2433    1.8386 C.3     1  UNL1        0.1152
     44 O          -5.8556   -4.6277    2.0867 O.3     1  UNL1       -0.3864
     45 C          -5.6325   -2.9997    0.3393 C.3     1  UNL1        0.1120
     46 O          -6.6099   -3.6805   -0.4067 O.3     1  UNL1       -0.3865
     47 C          -5.1507   -3.3599   -4.8088 C.3     1  UNL1        0.1341
     48 O          -4.6582   -4.5690   -5.3260 O.3     1  UNL1       -0.3841
     49 C          -5.2869   -2.3324   -5.9417 C.3     1  UNL1        0.1140
     50 O          -6.1858   -2.8140   -6.9068 O.3     1  UNL1       -0.3864
     51 C          -5.7797   -0.9689   -5.3840 C.3     1  UNL1        0.1095
     52 O          -5.3301    0.0798   -6.2081 O.3     1  UNL1       -0.3866
     53 H          -6.2225    1.2034   -3.7024 H       1  UNL1        0.0255
     54 H          -4.4352    1.2077   -4.0061 H       1  UNL1        0.0255
     55 H          -5.0741    0.7496   -2.3888 H       1  UNL1        0.0255
     56 H          -6.1138   -1.2475   -3.2421 H       1  UNL1        0.0621
     57 H          -3.1881   -3.2294   -3.9026 H       1  UNL1        0.0937
     58 H          -2.7348   -3.2895   -1.6265 H       1  UNL1        0.0587
     59 H          -3.7266   -1.8059   -1.3254 H       1  UNL1        0.0587
     60 H          -4.2925   -4.5990   -0.2179 H       1  UNL1        0.0647
     61 H          -2.6244   -2.2100    2.5590 H       1  UNL1        0.1084
     62 H          -0.9781   -1.8017    0.9243 H       1  UNL1        0.0691
     63 H           2.6024    1.4953   -2.3813 H       1  UNL1        0.0385
     64 H           1.5540    0.1621   -2.9708 H       1  UNL1        0.0385
     65 H           2.8685   -0.8497   -1.2890 H       1  UNL1        0.0789
     66 H           1.1755    1.4017    1.2505 H       1  UNL1        0.0623
     67 H           2.4309    2.7211    2.8779 H       1  UNL1        0.0654
     68 H           6.8346    3.5529    2.1223 H       1  UNL1        0.1084
     69 H           8.7760    1.2042    4.1198 H       1  UNL1        0.0647
     70 H           8.5613    2.0952    1.1900 H       1  UNL1        0.0584
     71 H          10.0162    1.3871    1.9679 H       1  UNL1        0.0584
     72 H           8.9066   -0.4937    2.3102 H       1  UNL1        0.2095
     73 H          10.0724    3.0777    4.2598 H       1  UNL1        0.0647
     74 H          10.0073    4.7748    2.8827 H       1  UNL1        0.2100
     75 H           8.6400    5.0799    4.9017 H       1  UNL1        0.0648
     76 H           7.7151    2.5801    5.9262 H       1  UNL1        0.2100
     77 H           6.0249    4.0855    5.0331 H       1  UNL1        0.0683
     78 H           6.4744    6.1402    4.4284 H       1  UNL1        0.2102
     79 H           6.1105    1.6568    0.9068 H       1  UNL1        0.0654
     80 H           4.8681    0.3337   -0.7185 H       1  UNL1        0.0623
     81 H          -3.1070    3.0813   -1.5461 H       1  UNL1        0.2922
     82 H          -3.8268    1.2547   -0.1030 H       1  UNL1        0.0691
     83 H          -4.4624   -3.2406    3.5093 H       1  UNL1        0.0683
     84 H          -4.6097   -1.0851    3.9352 H       1  UNL1        0.2102
     85 H          -6.8472   -2.8210    2.1133 H       1  UNL1        0.0648
     86 H          -6.3019   -4.7612    2.9636 H       1  UNL1        0.2100
     87 H          -5.7141   -1.9052    0.1374 H       1  UNL1        0.0647
     88 H          -7.4513   -3.1603   -0.3209 H       1  UNL1        0.2100
     89 H          -6.1692   -3.5294   -4.3835 H       1  UNL1        0.0671
     90 H          -4.7992   -5.2562   -4.6232 H       1  UNL1        0.2101
     91 H          -4.2775   -2.2131   -6.4031 H       1  UNL1        0.0648
     92 H          -6.0602   -2.2536   -7.7167 H       1  UNL1        0.2100
     93 H          -6.8921   -0.9555   -5.4030 H       1  UNL1        0.0646
     94 H          -4.3379    0.0905   -6.1654 H       1  UNL1        0.2100
@<TRIPOS>BOND
     1     1     2    1
     2     2     3    1
     3     3     4    1
     4     4     5    1
     5     5     6    1
     6     6     7    1
     7     7     8    1
     8     8     9    1
     9     9    10    1
    10    10    11    1
    11    11    12   ar
    12    12    13   ar
    13    13    14   ar
    14    14    15    1
    15    15    16    2
    16    15    17    1
    17    17    18    1
    18    18    19    1
    19    18    20    1
    20    20    21   ar
    21    21    22   ar
    22    22    23   ar
    23    23    24    1
    24    24    25    1
    25    25    26    1
    26    26    27    1
    27    27    28    1
    28    28    29    1
    29    27    30    1
    30    30    31    1
    31    30    32    1
    32    32    33    1
    33    32    34    1
    34    34    35    1
    35    23    36   ar
    36    36    37   ar
    37    14    38   ar
    38    38    39    1
    39    38    40   ar
    40     9    41    1
    41    41    42    1
    42    41    43    1
    43    43    44    1
    44    43    45    1
    45    45    46    1
    46     4    47    1
    47    47    48    1
    48    47    49    1
    49    49    50    1
    50    49    51    1
    51    51    52    1
    52    51     2    1
    53    45     7    1
    54    40    11   ar
    55    19    13    1
    56    37    20   ar
    57    34    25    1
    58     1    53    1
    59     1    54    1
    60     1    55    1
    61     2    56    1
    62     4    57    1
    63     6    58    1
    64     6    59    1
    65     7    60    1
    66     9    61    1
    67    12    62    1
    68    17    63    1
    69    17    64    1
    70    18    65    1
    71    21    66    1
    72    22    67    1
    73    25    68    1
    74    27    69    1
    75    28    70    1
    76    28    71    1
    77    29    72    1
    78    30    73    1
    79    31    74    1
    80    32    75    1
    81    33    76    1
    82    34    77    1
    83    35    78    1
    84    36    79    1
    85    37    80    1
    86    39    81    1
    87    40    82    1
    88    41    83    1
    89    42    84    1
    90    43    85    1
    91    44    86    1
    92    45    87    1
    93    46    88    1
    94    47    89    1
    95    48    90    1
    96    49    91    1
    97    50    92    1
    98    51    93    1
    99    52    94    1
