@<TRIPOS>MOLECULE
Naringin 4'-O-glucoside
 94 99 0 0 0
SMALL
GASTEIGER

@<TRIPOS>ATOM
      1 C          -3.3614    3.9392   -3.0367 C.3     1  UNL1       -0.0361
      2 C          -4.4279    3.2435   -2.1893 C.3     1  UNL1        0.0873
      3 O          -4.8527    2.0802   -2.8901 O.3     1  UNL1       -0.3431
      4 C          -5.9557    1.4485   -2.2556 C.3     1  UNL1        0.1885
      5 O          -5.6600    1.1345   -0.9005 O.3     1  UNL1       -0.3366
      6 C          -4.7851    0.0201   -0.8038 C.3     1  UNL1        0.1519
      7 C          -5.6052   -1.2933   -0.6853 C.3     1  UNL1        0.1155
      8 O          -5.0699   -2.3010   -1.5078 O.3     1  UNL1       -0.3863
      9 C          -5.7191   -1.7888    0.7734 C.3     1  UNL1        0.1120
     10 O          -6.8817   -2.5653    0.9128 O.3     1  UNL1       -0.3865
     11 C          -5.7679   -0.5711    1.7327 C.3     1  UNL1        0.1140
     12 C          -5.9269   -1.0164    3.1976 C.3     1  UNL1        0.0731
     13 O          -7.1870   -1.5887    3.4257 O.3     1  UNL1       -0.3924
     14 O          -4.6177    0.2698    1.6624 O.3     1  UNL1       -0.3313
     15 C          -3.8899    0.2229    0.4414 C.3     1  UNL1        0.2312
     16 O          -2.8899   -0.7960    0.5335 O.3     1  UNL1       -0.4606
     17 C          -1.7604   -0.9216   -0.2930 C.ar    1  UNL1        0.1310
     18 C          -1.3836    0.0588   -1.2312 C.ar    1  UNL1        0.0226
     19 C          -0.2514   -0.1239   -2.0387 C.ar    1  UNL1        0.1343
     20 O           0.0931    0.8517   -2.9742 O.3     1  UNL1       -0.5058
     21 C           0.5230   -1.2943   -1.9045 C.ar    1  UNL1        0.1007
     22 C           1.7116   -1.5669   -2.7418 C.2     1  UNL1        0.1740
     23 O           2.2188   -0.6713   -3.4691 O.2     1  UNL1       -0.2917
     24 C           2.2844   -2.9529   -2.7706 C.3     1  UNL1        0.0520
     25 C           2.2157   -3.6132   -1.3811 C.3     1  UNL1        0.1322
     26 O           0.9367   -3.4113   -0.7650 O.3     1  UNL1       -0.4828
     27 C           0.1582   -2.2594   -0.9494 C.ar    1  UNL1        0.1389
     28 C          -0.9797   -2.0731   -0.1614 C.ar    1  UNL1        0.0229
     29 C           3.3467   -3.1404   -0.4856 C.ar    1  UNL1       -0.0067
     30 C           4.5646   -3.8416   -0.4882 C.ar    1  UNL1       -0.0516
     31 C           5.6376   -3.4066    0.2936 C.ar    1  UNL1       -0.0195
     32 C           5.5237   -2.2586    1.0833 C.ar    1  UNL1        0.1240
     33 O           6.6371   -1.8615    1.8403 O.3     1  UNL1       -0.4608
     34 C           6.6932   -0.7057    2.6777 C.3     1  UNL1        0.2308
     35 O           6.5536    0.4840    1.9004 O.3     1  UNL1       -0.3313
     36 C           7.7759    1.0470    1.4397 C.3     1  UNL1        0.1140
     37 C           8.4273    0.2028    0.3231 C.3     1  UNL1        0.0731
     38 O           7.5839    0.1339   -0.7952 O.3     1  UNL1       -0.3924
     39 C           8.7593    1.3949    2.6016 C.3     1  UNL1        0.1120
     40 O           8.7970    2.7825    2.8304 O.3     1  UNL1       -0.3865
     41 C           8.4106    0.6525    3.9060 C.3     1  UNL1        0.1152
     42 O           9.5347    0.6035    4.7467 O.3     1  UNL1       -0.3864
     43 C           7.9605   -0.7659    3.5623 C.3     1  UNL1        0.1454
     44 O           7.6746   -1.4843    4.7364 O.3     1  UNL1       -0.3829
     45 C           4.3115   -1.5444    1.0819 C.ar    1  UNL1       -0.0195
     46 C           3.2371   -1.9781    0.3000 C.ar    1  UNL1       -0.0516
     47 C          -7.2235    2.3464   -2.3238 C.3     1  UNL1        0.1341
     48 O          -8.1608    1.8543   -3.2517 O.3     1  UNL1       -0.3841
     49 C          -6.8746    3.8216   -2.6234 C.3     1  UNL1        0.1140
     50 O          -6.6766    4.0063   -4.0034 O.3     1  UNL1       -0.3864
     51 C          -5.5988    4.2212   -1.8576 C.3     1  UNL1        0.1095
     52 O          -5.8462    4.1915   -0.4737 O.3     1  UNL1       -0.3866
     53 H          -2.9418    4.8110   -2.4907 H       1  UNL1        0.0255
     54 H          -3.7962    4.2847   -3.9989 H       1  UNL1        0.0255
     55 H          -2.5333    3.2319   -3.2544 H       1  UNL1        0.0255
     56 H          -3.9173    2.9385   -1.2490 H       1  UNL1        0.0621
     57 H          -6.1782    0.5125   -2.8195 H       1  UNL1        0.0938
     58 H          -4.1121   -0.0475   -1.6906 H       1  UNL1        0.0687
     59 H          -6.6353   -1.0905   -1.0541 H       1  UNL1        0.0648
     60 H          -4.1385   -2.4711   -1.2097 H       1  UNL1        0.2100
     61 H          -4.8294   -2.4054    1.0430 H       1  UNL1        0.0647
     62 H          -6.6909   -3.4442    0.4921 H       1  UNL1        0.2100
     63 H          -6.6549    0.0486    1.4707 H       1  UNL1        0.0647
     64 H          -5.1414   -1.7598    3.4518 H       1  UNL1        0.0584
     65 H          -5.7853   -0.1428    3.8746 H       1  UNL1        0.0584
     66 H          -7.8396   -0.8408    3.4475 H       1  UNL1        0.2095
     67 H          -3.3839    1.2062    0.3529 H       1  UNL1        0.1084
     68 H          -1.9592    0.9651   -1.3506 H       1  UNL1        0.0691
     69 H          -0.4514    1.6988   -3.0862 H       1  UNL1        0.2922
     70 H           1.6869   -3.5562   -3.4874 H       1  UNL1        0.0385
     71 H           3.3341   -2.9325   -3.1383 H       1  UNL1        0.0385
     72 H           2.3296   -4.7098   -1.5276 H       1  UNL1        0.0789
     73 H          -1.2551   -2.8265    0.5661 H       1  UNL1        0.0691
     74 H           4.6865   -4.7262   -1.1011 H       1  UNL1        0.0623
     75 H           6.5676   -3.9608    0.2794 H       1  UNL1        0.0654
     76 H           5.8204   -0.7366    3.3670 H       1  UNL1        0.1084
     77 H           7.5050    2.0067    0.9460 H       1  UNL1        0.0647
     78 H           8.6982   -0.8154    0.6770 H       1  UNL1        0.0584
     79 H           9.3705    0.6942    0.0021 H       1  UNL1        0.0584
     80 H           6.9293   -0.5889   -0.6188 H       1  UNL1        0.2095
     81 H           9.7877    1.0894    2.3056 H       1  UNL1        0.0647
     82 H           7.8781    3.0710    3.0735 H       1  UNL1        0.2100
     83 H           7.5702    1.1665    4.4316 H       1  UNL1        0.0648
     84 H           9.6305    1.5066    5.1478 H       1  UNL1        0.2100
     85 H           8.7765   -1.2796    2.9996 H       1  UNL1        0.0683
     86 H           8.5390   -1.8232    5.0884 H       1  UNL1        0.2102
     87 H           4.1879   -0.6489    1.6742 H       1  UNL1        0.0654
     88 H           2.3271   -1.3973    0.3146 H       1  UNL1        0.0623
     89 H          -7.7191    2.3187   -1.3278 H       1  UNL1        0.0671
     90 H          -7.6990    1.7446   -4.1238 H       1  UNL1        0.2101
     91 H          -7.7270    4.4583   -2.2878 H       1  UNL1        0.0648
     92 H          -6.7255    4.9834   -4.1729 H       1  UNL1        0.2100
     93 H          -5.3260    5.2648   -2.1452 H       1  UNL1        0.0646
     94 H          -6.4015    4.9868   -0.2608 H       1  UNL1        0.2100
@<TRIPOS>BOND
     1     1     2    1
     2     2     3    1
     3     3     4    1
     4     4     5    1
     5     5     6    1
     6     6     7    1
     7     7     8    1
     8     7     9    1
     9     9    10    1
    10     9    11    1
    11    11    12    1
    12    12    13    1
    13    11    14    1
    14    14    15    1
    15    15    16    1
    16    16    17    1
    17    17    18   ar
    18    18    19   ar
    19    19    20    1
    20    19    21   ar
    21    21    22    1
    22    22    23    2
    23    22    24    1
    24    24    25    1
    25    25    26    1
    26    26    27    1
    27    27    28   ar
    28    25    29    1
    29    29    30   ar
    30    30    31   ar
    31    31    32   ar
    32    32    33    1
    33    33    34    1
    34    34    35    1
    35    35    36    1
    36    36    37    1
    37    37    38    1
    38    36    39    1
    39    39    40    1
    40    39    41    1
    41    41    42    1
    42    41    43    1
    43    43    44    1
    44    32    45   ar
    45    45    46   ar
    46     4    47    1
    47    47    48    1
    48    47    49    1
    49    49    50    1
    50    49    51    1
    51    51    52    1
    52    51     2    1
    53    15     6    1
    54    28    17   ar
    55    46    29   ar
    56    27    21   ar
    57    43    34    1
    58     1    53    1
    59     1    54    1
    60     1    55    1
    61     2    56    1
    62     4    57    1
    63     6    58    1
    64     7    59    1
    65     8    60    1
    66     9    61    1
    67    10    62    1
    68    11    63    1
    69    12    64    1
    70    12    65    1
    71    13    66    1
    72    15    67    1
    73    18    68    1
    74    20    69    1
    75    24    70    1
    76    24    71    1
    77    25    72    1
    78    28    73    1
    79    30    74    1
    80    31    75    1
    81    34    76    1
    82    36    77    1
    83    37    78    1
    84    37    79    1
    85    38    80    1
    86    39    81    1
    87    40    82    1
    88    41    83    1
    89    42    84    1
    90    43    85    1
    91    44    86    1
    92    45    87    1
    93    46    88    1
    94    47    89    1
    95    48    90    1
    96    49    91    1
    97    50    92    1
    98    51    93    1
    99    52    94    1
