@<TRIPOS>MOLECULE
Pelargonidin 3-O-rutinoside
 72 76 0 0 0
SMALL
GASTEIGER

@<TRIPOS>ATOM
      1 C           6.1836   -1.9318   -0.7067 C.3     1  UNL1       -0.0361
      2 C           4.7355   -1.4573   -0.5710 C.3     1  UNL1        0.0873
      3 O           3.8857   -2.5051   -1.0184 O.3     1  UNL1       -0.3431
      4 C           2.5136   -2.1874   -0.8403 C.3     1  UNL1        0.1879
      5 O           2.2404   -1.9601    0.5360 O.3     1  UNL1       -0.3461
      6 C           0.9302   -2.3673    0.8747 C.3     1  UNL1        0.0796
      7 C           0.6188   -1.9081    2.3041 C.3     1  UNL1        0.1144
      8 O           0.9275   -0.5244    2.4591 O.3     1  UNL1       -0.3313
      9 C          -0.1922    0.3417    2.3691 C.3     1  UNL1        0.2312
     10 O          -0.7943    0.2620    1.0681 O.3     1  UNL1       -0.4515
     11 C          -1.6049    1.2553    0.4779 C.ar    1  UNL1        0.2288
     12 C          -1.9135    2.4628    1.1307 C.ar    1  UNL1        0.0093
     13 C          -2.6590    3.4562    0.4744 C.ar    1  UNL1        0.1241
     14 C          -2.9966    4.7009    1.0694 C.ar    1  UNL1        0.1366
     15 O          -2.6363    5.0506    2.3744 O.3     1  UNL1       -0.5057
     16 C          -3.7275    5.6403    0.3315 C.ar    1  UNL1        0.0225
     17 C          -4.1308    5.3690   -0.9774 C.ar    1  UNL1        0.1293
     18 O          -4.8565    6.3249   -1.6848 O.3     1  UNL1       -0.5063
     19 C          -3.8053    4.1434   -1.5653 C.ar    1  UNL1        0.0847
     20 C          -3.0768    3.1897   -0.8498 C.ar    1  UNL1        0.3708
     21 O          -2.7891    2.0305   -1.4282 O.2     1  UNL1       -0.1997
     22 C          -2.1031    1.0646   -0.8260 C.ar    1  UNL1        0.4045
     23 C          -1.8846   -0.1912   -1.5663 C.ar    1  UNL1        0.0830
     24 C          -1.4120   -0.1499   -2.8870 C.ar    1  UNL1       -0.0420
     25 C          -1.2219   -1.3347   -3.6043 C.ar    1  UNL1       -0.0193
     26 C          -1.5135   -2.5708   -3.0116 C.ar    1  UNL1        0.1169
     27 O          -1.3115   -3.7588   -3.7102 O.3     1  UNL1       -0.5068
     28 C          -2.0168   -2.6132   -1.7077 C.ar    1  UNL1       -0.0193
     29 C          -2.2156   -1.4286   -0.9927 C.ar    1  UNL1       -0.0420
     30 C          -1.2310    0.0630    3.4908 C.3     1  UNL1        0.1454
     31 O          -0.9548    0.8628    4.6128 O.3     1  UNL1       -0.3829
     32 C          -1.2307   -1.4153    3.9267 C.3     1  UNL1        0.1152
     33 O          -2.5157   -1.7674    4.3738 O.3     1  UNL1       -0.3864
     34 C          -0.8101   -2.3124    2.7588 C.3     1  UNL1        0.1120
     35 O          -0.8235   -3.6558    3.1709 O.3     1  UNL1       -0.3865
     36 C           2.1332   -0.9575   -1.6970 C.3     1  UNL1        0.1341
     37 O           2.3002   -1.2540   -3.0609 O.3     1  UNL1       -0.3841
     38 C           3.0186    0.2364   -1.3182 C.3     1  UNL1        0.1140
     39 O           2.7594    1.3047   -2.1929 O.3     1  UNL1       -0.3864
     40 C           4.5029   -0.1620   -1.3868 C.3     1  UNL1        0.1095
     41 O           5.2795    0.8854   -0.8609 O.3     1  UNL1       -0.3866
     42 H           6.8843   -1.1793   -0.2872 H       1  UNL1        0.0255
     43 H           6.4358   -2.1123   -1.7736 H       1  UNL1        0.0255
     44 H           6.3207   -2.8803   -0.1451 H       1  UNL1        0.0255
     45 H           4.5668   -1.2514    0.5110 H       1  UNL1        0.0621
     46 H           1.9413   -3.0643   -1.2272 H       1  UNL1        0.0937
     47 H           0.8581   -3.4768    0.8263 H       1  UNL1        0.0587
     48 H           0.1833   -1.9312    0.1827 H       1  UNL1        0.0587
     49 H           1.3293   -2.4502    2.9675 H       1  UNL1        0.0647
     50 H           0.2179    1.3657    2.4978 H       1  UNL1        0.1084
     51 H          -1.5641    2.6201    2.1329 H       1  UNL1        0.0667
     52 H          -2.1255    4.4535    3.0079 H       1  UNL1        0.2922
     53 H          -3.9852    6.5911    0.7816 H       1  UNL1        0.0691
     54 H          -5.1646    6.1595   -2.6359 H       1  UNL1        0.2921
     55 H          -4.1199    3.9296   -2.5795 H       1  UNL1        0.0749
     56 H          -1.1742    0.7977   -3.3549 H       1  UNL1        0.0628
     57 H          -0.8406   -1.2916   -4.6164 H       1  UNL1        0.0654
     58 H          -0.9465   -3.7612   -4.6555 H       1  UNL1        0.2921
     59 H          -2.2595   -3.5637   -1.2500 H       1  UNL1        0.0654
     60 H          -2.6392   -1.4743    0.0013 H       1  UNL1        0.0628
     61 H          -2.2475    0.3121    3.1029 H       1  UNL1        0.0683
     62 H          -1.3042    1.7709    4.4163 H       1  UNL1        0.2102
     63 H          -0.4924   -1.5463    4.7555 H       1  UNL1        0.0648
     64 H          -2.4098   -2.5486    4.9775 H       1  UNL1        0.2100
     65 H          -1.5406   -2.1666    1.9310 H       1  UNL1        0.0647
     66 H          -0.9083   -4.2084    2.3508 H       1  UNL1        0.2100
     67 H           1.0741   -0.6743   -1.5104 H       1  UNL1        0.0671
     68 H           1.5722   -1.8804   -3.3104 H       1  UNL1        0.2101
     69 H           2.7652    0.5389   -0.2733 H       1  UNL1        0.0648
     70 H           3.0753    2.1306   -1.7415 H       1  UNL1        0.2100
     71 H           4.7673   -0.3476   -2.4565 H       1  UNL1        0.0646
     72 H           6.1287    0.9074   -1.3745 H       1  UNL1        0.2100
@<TRIPOS>UNITY_ATOM_ATTR
21 1
charge 1
@<TRIPOS>BOND
     1     1     2    1
     2     2     3    1
     3     3     4    1
     4     4     5    1
     5     5     6    1
     6     6     7    1
     7     7     8    1
     8     8     9    1
     9     9    10    1
    10    10    11    1
    11    11    12   ar
    12    12    13   ar
    13    13    14   ar
    14    14    15    1
    15    14    16   ar
    16    16    17   ar
    17    17    18    1
    18    17    19   ar
    19    19    20   ar
    20    20    21   ar
    21    21    22   ar
    22    22    23    1
    23    23    24   ar
    24    24    25   ar
    25    25    26   ar
    26    26    27    1
    27    26    28   ar
    28    28    29   ar
    29     9    30    1
    30    30    31    1
    31    30    32    1
    32    32    33    1
    33    32    34    1
    34    34    35    1
    35     4    36    1
    36    36    37    1
    37    36    38    1
    38    38    39    1
    39    38    40    1
    40    40    41    1
    41    40     2    1
    42    34     7    1
    43    22    11   ar
    44    29    23   ar
    45    20    13   ar
    46     1    42    1
    47     1    43    1
    48     1    44    1
    49     2    45    1
    50     4    46    1
    51     6    47    1
    52     6    48    1
    53     7    49    1
    54     9    50    1
    55    12    51    1
    56    15    52    1
    57    16    53    1
    58    18    54    1
    59    19    55    1
    60    24    56    1
    61    25    57    1
    62    27    58    1
    63    28    59    1
    64    29    60    1
    65    30    61    1
    66    31    62    1
    67    32    63    1
    68    33    64    1
    69    34    65    1
    70    35    66    1
    71    36    67    1
    72    37    68    1
    73    38    69    1
    74    39    70    1
    75    40    71    1
    76    41    72    1
