@<TRIPOS>MOLECULE
Naringin 6'-malonate
 102 107 0 0 0
SMALL
GASTEIGER

@<TRIPOS>ATOM
      1 C          -4.1467   -3.5169    2.8009 C.3     1  UNL1       -0.0361
      2 C          -4.9990   -3.8095    1.5607 C.3     1  UNL1        0.0873
      3 O          -4.8503   -2.7663    0.6019 O.3     1  UNL1       -0.3431
      4 C          -5.8043   -1.7335    0.7875 C.3     1  UNL1        0.1885
      5 O          -5.4673   -0.6319   -0.0335 O.3     1  UNL1       -0.3366
      6 C          -4.3264    0.0529    0.4651 C.3     1  UNL1        0.1519
      7 C          -4.7658    1.3462    1.1731 C.3     1  UNL1        0.1156
      8 O          -3.6979    1.8968    1.9013 O.3     1  UNL1       -0.3863
      9 C          -5.2913    2.3716    0.1588 C.3     1  UNL1        0.1130
     10 O          -6.5557    1.9551   -0.2939 O.3     1  UNL1       -0.3864
     11 C          -4.3352    2.5323   -1.0528 C.3     1  UNL1        0.1250
     12 C          -3.1220    3.4575   -0.8052 C.3     1  UNL1        0.1212
     13 O          -3.5366    4.8228   -0.7521 O.3     1  UNL1       -0.4616
     14 C          -3.7700    5.5222    0.4375 C.2     1  UNL1        0.3180
     15 O          -3.4753    5.0178    1.5555 O.2     1  UNL1       -0.2502
     16 C          -4.4272    6.8608    0.3798 C.3     1  UNL1        0.1418
     17 C          -5.9112    6.6891    0.3789 C.2     1  UNL1        0.3155
     18 O          -6.5689    6.3577   -0.8016 O.3     1  UNL1       -0.4802
     19 O          -6.5614    6.8017    1.4524 O.2     1  UNL1       -0.2504
     20 O          -3.9606    1.2884   -1.6345 O.3     1  UNL1       -0.3301
     21 C          -3.3883    0.3648   -0.7191 C.3     1  UNL1        0.2312
     22 O          -2.1051    0.8184   -0.2774 O.3     1  UNL1       -0.4606
     23 C          -1.1320    0.0387    0.3701 C.ar    1  UNL1        0.1310
     24 C          -1.2277   -1.3611    0.4902 C.ar    1  UNL1        0.0226
     25 C          -0.2338   -2.0899    1.1592 C.ar    1  UNL1        0.1343
     26 O          -0.3580   -3.4741    1.2806 O.3     1  UNL1       -0.5058
     27 C           0.8765   -1.4176    1.7093 C.ar    1  UNL1        0.1007
     28 C           1.9467   -2.1172    2.4532 C.2     1  UNL1        0.1740
     29 O           2.0299   -3.3748    2.4511 O.2     1  UNL1       -0.2917
     30 C           2.9118   -1.3157    3.2753 C.3     1  UNL1        0.0520
     31 C           3.2654    0.0138    2.5832 C.3     1  UNL1        0.1322
     32 O           2.0981    0.6644    2.0632 O.3     1  UNL1       -0.4828
     33 C           0.9821   -0.0228    1.5644 C.ar    1  UNL1        0.1389
     34 C          -0.0209    0.6935    0.9075 C.ar    1  UNL1        0.0229
     35 C           4.3185   -0.1820    1.5075 C.ar    1  UNL1       -0.0067
     36 C           5.6772   -0.0573    1.8435 C.ar    1  UNL1       -0.0516
     37 C           6.6697   -0.2659    0.8826 C.ar    1  UNL1       -0.0195
     38 C           6.3303   -0.6131   -0.4284 C.ar    1  UNL1        0.1240
     39 O           7.3714   -0.8090   -1.3503 O.3     1  UNL1       -0.4608
     40 C           7.2157   -1.1097   -2.7422 C.3     1  UNL1        0.2308
     41 O           8.4318   -1.6107   -3.2729 O.3     1  UNL1       -0.3313
     42 C           9.5253   -0.6975   -3.1788 C.3     1  UNL1        0.1140
     43 C          10.4096   -1.0297   -1.9647 C.3     1  UNL1        0.0731
     44 O          10.7790   -2.3822   -1.9806 O.3     1  UNL1       -0.3924
     45 C           9.1267    0.8025   -3.2048 C.3     1  UNL1        0.1120
     46 O          10.1951    1.5596   -3.7160 O.3     1  UNL1       -0.3865
     47 C           7.8868    0.9736   -4.0886 C.3     1  UNL1        0.1152
     48 O           7.5208    2.3291   -4.1285 O.3     1  UNL1       -0.3864
     49 C           6.7160    0.1235   -3.5405 C.3     1  UNL1        0.1454
     50 O           5.9126   -0.3149   -4.6065 O.3     1  UNL1       -0.3829
     51 C           4.9722   -0.7580   -0.7676 C.ar    1  UNL1       -0.0195
     52 C           3.9780   -0.5489    0.1924 C.ar    1  UNL1       -0.0516
     53 C          -7.2072   -2.2443    0.3862 C.3     1  UNL1        0.1341
     54 O          -8.2039   -1.4336    0.9606 O.3     1  UNL1       -0.3841
     55 C          -7.3936   -3.7427    0.7551 C.3     1  UNL1        0.1140
     56 O          -8.7313   -4.0226    1.0806 O.3     1  UNL1       -0.3864
     57 C          -6.4815   -4.1270    1.9283 C.3     1  UNL1        0.1095
     58 O          -6.6321   -5.4956    2.2069 O.3     1  UNL1       -0.3866
     59 H          -4.5420   -2.6441    3.3608 H       1  UNL1        0.0255
     60 H          -4.1356   -4.3986    3.4757 H       1  UNL1        0.0255
     61 H          -3.1023   -3.2961    2.4954 H       1  UNL1        0.0255
     62 H          -4.5714   -4.7220    1.0896 H       1  UNL1        0.0621
     63 H          -5.8355   -1.4084    1.8566 H       1  UNL1        0.0938
     64 H          -3.7498   -0.5566    1.2009 H       1  UNL1        0.0687
     65 H          -5.5935    1.1082    1.8825 H       1  UNL1        0.0648
     66 H          -3.5744    1.3306    2.7076 H       1  UNL1        0.2100
     67 H          -5.4086    3.3462    0.6843 H       1  UNL1        0.0647
     68 H          -7.0124    2.7574   -0.6600 H       1  UNL1        0.2100
     69 H          -4.9253    3.0551   -1.8379 H       1  UNL1        0.0658
     70 H          -2.5535    3.1869    0.1061 H       1  UNL1        0.0724
     71 H          -2.4255    3.3523   -1.6639 H       1  UNL1        0.0724
     72 H          -4.1125    7.4784    1.2491 H       1  UNL1        0.0493
     73 H          -4.1160    7.3874   -0.5473 H       1  UNL1        0.0493
     74 H          -7.5718    6.2158   -0.8152 H       1  UNL1        0.2951
     75 H          -3.2422   -0.5746   -1.2928 H       1  UNL1        0.1084
     76 H          -2.0680   -1.8982    0.0754 H       1  UNL1        0.0691
     77 H          -1.1478   -3.9749    0.8902 H       1  UNL1        0.2922
     78 H           3.8339   -1.9045    3.4766 H       1  UNL1        0.0385
     79 H           2.4304   -1.0973    4.2528 H       1  UNL1        0.0385
     80 H           3.6879    0.6899    3.3587 H       1  UNL1        0.0789
     81 H           0.0669    1.7684    0.8084 H       1  UNL1        0.0691
     82 H           5.9709    0.2004    2.8536 H       1  UNL1        0.0623
     83 H           7.7112   -0.1592    1.1590 H       1  UNL1        0.0654
     84 H           6.4720   -1.9301   -2.8361 H       1  UNL1        0.1084
     85 H          10.1485   -0.8781   -4.0831 H       1  UNL1        0.0647
     86 H           9.8648   -0.8252   -1.0204 H       1  UNL1        0.0584
     87 H          11.3187   -0.3855   -1.9675 H       1  UNL1        0.0584
     88 H          11.4832   -2.4765   -2.6740 H       1  UNL1        0.2095
     89 H           8.8836    1.1451   -2.1699 H       1  UNL1        0.0647
     90 H          10.0683    2.4919   -3.3992 H       1  UNL1        0.2100
     91 H           8.1527    0.6274   -5.1168 H       1  UNL1        0.0648
     92 H           6.9252    2.4421   -4.9146 H       1  UNL1        0.2100
     93 H           6.1017    0.7541   -2.8562 H       1  UNL1        0.0683
     94 H           5.3655    0.4619   -4.8946 H       1  UNL1        0.2102
     95 H           4.6694   -1.0314   -1.7683 H       1  UNL1        0.0654
     96 H           2.9474   -0.6769   -0.1026 H       1  UNL1        0.0623
     97 H          -7.3093   -2.1635   -0.7187 H       1  UNL1        0.0671
     98 H          -8.1588   -1.5531    1.9453 H       1  UNL1        0.2101
     99 H          -7.0926   -4.3666   -0.1207 H       1  UNL1        0.0648
    100 H          -9.2436   -3.9853    0.2308 H       1  UNL1        0.2100
    101 H          -6.7967   -3.5285    2.8166 H       1  UNL1        0.0646
    102 H          -6.2720   -5.6432    3.1200 H       1  UNL1        0.2100
@<TRIPOS>BOND
     1     1     2    1
     2     2     3    1
     3     3     4    1
     4     4     5    1
     5     5     6    1
     6     6     7    1
     7     7     8    1
     8     7     9    1
     9     9    10    1
    10     9    11    1
    11    11    12    1
    12    12    13    1
    13    13    14    1
    14    14    15    2
    15    14    16    1
    16    16    17    1
    17    17    18    1
    18    17    19    2
    19    11    20    1
    20    20    21    1
    21    21    22    1
    22    22    23    1
    23    23    24   ar
    24    24    25   ar
    25    25    26    1
    26    25    27   ar
    27    27    28    1
    28    28    29    2
    29    28    30    1
    30    30    31    1
    31    31    32    1
    32    32    33    1
    33    33    34   ar
    34    31    35    1
    35    35    36   ar
    36    36    37   ar
    37    37    38   ar
    38    38    39    1
    39    39    40    1
    40    40    41    1
    41    41    42    1
    42    42    43    1
    43    43    44    1
    44    42    45    1
    45    45    46    1
    46    45    47    1
    47    47    48    1
    48    47    49    1
    49    49    50    1
    50    38    51   ar
    51    51    52   ar
    52     4    53    1
    53    53    54    1
    54    53    55    1
    55    55    56    1
    56    55    57    1
    57    57    58    1
    58    57     2    1
    59    21     6    1
    60    34    23   ar
    61    52    35   ar
    62    33    27   ar
    63    49    40    1
    64     1    59    1
    65     1    60    1
    66     1    61    1
    67     2    62    1
    68     4    63    1
    69     6    64    1
    70     7    65    1
    71     8    66    1
    72     9    67    1
    73    10    68    1
    74    11    69    1
    75    12    70    1
    76    12    71    1
    77    16    72    1
    78    16    73    1
    79    18    74    1
    80    21    75    1
    81    24    76    1
    82    26    77    1
    83    30    78    1
    84    30    79    1
    85    31    80    1
    86    34    81    1
    87    36    82    1
    88    37    83    1
    89    40    84    1
    90    42    85    1
    91    43    86    1
    92    43    87    1
    93    44    88    1
    94    45    89    1
    95    46    90    1
    96    47    91    1
    97    48    92    1
    98    49    93    1
    99    50    94    1
   100    51    95    1
   101    52    96    1
   102    53    97    1
   103    54    98    1
   104    55    99    1
   105    56   100    1
   106    57   101    1
   107    58   102    1
