@<TRIPOS>MOLECULE
Naringenin 7-O-glucoside
 53 56 0 0 0
SMALL
GASTEIGER

@<TRIPOS>ATOM
      1 O          -3.9827   -0.9547    2.8108 O.3     1  UNL1       -0.3924
      2 C          -3.3013   -0.5267    1.6633 C.3     1  UNL1        0.0731
      3 C          -3.5137    0.9871    1.4609 C.3     1  UNL1        0.1140
      4 O          -2.5377    1.5676    0.6013 O.3     1  UNL1       -0.3313
      5 C          -2.7638    1.3388   -0.7842 C.3     1  UNL1        0.2308
      6 O          -2.5688   -0.0332   -1.1338 O.3     1  UNL1       -0.4606
      7 C          -1.3515   -0.7264   -1.0392 C.ar    1  UNL1        0.1310
      8 C          -1.3326   -2.0766   -1.3965 C.ar    1  UNL1        0.0226
      9 C          -0.1536   -2.8282   -1.3326 C.ar    1  UNL1        0.1343
     10 O          -0.2056   -4.1446   -1.7963 O.3     1  UNL1       -0.5058
     11 C           1.0328   -2.2256   -0.8414 C.ar    1  UNL1        0.1007
     12 C           2.3187   -2.9439   -0.6619 C.2     1  UNL1        0.1740
     13 O           2.3679   -4.1969   -0.5450 O.2     1  UNL1       -0.2917
     14 C           3.5830   -2.1450   -0.5521 C.3     1  UNL1        0.0520
     15 C           3.3405   -0.9456    0.3748 C.3     1  UNL1        0.1322
     16 O           2.1747   -0.2233   -0.0322 O.3     1  UNL1       -0.4828
     17 C           1.0125   -0.8592   -0.4907 C.ar    1  UNL1        0.1389
     18 C          -0.1649   -0.1165   -0.6010 C.ar    1  UNL1        0.0229
     19 C           4.5390   -0.0287    0.3863 C.ar    1  UNL1       -0.0067
     20 C           4.7665    0.8645   -0.6759 C.ar    1  UNL1       -0.0516
     21 C           5.8944    1.6905   -0.6752 C.ar    1  UNL1       -0.0198
     22 C           6.8133    1.6262    0.3807 C.ar    1  UNL1        0.1169
     23 O           7.9405    2.4445    0.3923 O.3     1  UNL1       -0.5068
     24 C           6.5995    0.7299    1.4325 C.ar    1  UNL1       -0.0198
     25 C           5.4724   -0.0975    1.4346 C.ar    1  UNL1       -0.0516
     26 C          -4.1489    1.8252   -1.2486 C.3     1  UNL1        0.1454
     27 O          -4.2207    3.2257   -1.1539 O.3     1  UNL1       -0.3829
     28 C          -5.2632    1.1992   -0.4036 C.3     1  UNL1        0.1152
     29 O          -5.3958   -0.1613   -0.7275 O.3     1  UNL1       -0.3864
     30 C          -4.9691    1.3788    1.0996 C.3     1  UNL1        0.1120
     31 O          -5.1778    2.7203    1.4651 O.3     1  UNL1       -0.3865
     32 H          -3.7933   -1.9250    2.8992 H       1  UNL1        0.2095
     33 H          -2.2132   -0.7227    1.7924 H       1  UNL1        0.0584
     34 H          -3.6620   -1.1076    0.7907 H       1  UNL1        0.0584
     35 H          -3.3216    1.4317    2.4631 H       1  UNL1        0.0647
     36 H          -2.0161    1.9369   -1.3493 H       1  UNL1        0.1084
     37 H          -2.2427   -2.5427   -1.7539 H       1  UNL1        0.0691
     38 H           0.6096   -4.7096   -1.9841 H       1  UNL1        0.2922
     39 H           4.4050   -2.7745   -0.1455 H       1  UNL1        0.0385
     40 H           3.8705   -1.7968   -1.5680 H       1  UNL1        0.0385
     41 H           3.1558   -1.3316    1.4028 H       1  UNL1        0.0789
     42 H          -0.1444    0.9282   -0.3242 H       1  UNL1        0.0691
     43 H           4.0720    0.9193   -1.5051 H       1  UNL1        0.0623
     44 H           6.0551    2.3768   -1.4968 H       1  UNL1        0.0654
     45 H           8.1241    3.1034   -0.3553 H       1  UNL1        0.2921
     46 H           7.3095    0.6721    2.2477 H       1  UNL1        0.0654
     47 H           5.3290   -0.7918    2.2532 H       1  UNL1        0.0623
     48 H          -4.3041    1.5214   -2.3112 H       1  UNL1        0.0683
     49 H          -3.7185    3.5941   -1.9272 H       1  UNL1        0.2102
     50 H          -6.2189    1.7175   -0.6551 H       1  UNL1        0.0648
     51 H          -6.2710   -0.4599   -0.3660 H       1  UNL1        0.2100
     52 H          -5.6690    0.7382    1.6864 H       1  UNL1        0.0647
     53 H          -6.1600    2.8581    1.5158 H       1  UNL1        0.2100
@<TRIPOS>BOND
     1     1     2    1
     2     2     3    1
     3     3     4    1
     4     4     5    1
     5     5     6    1
     6     6     7    1
     7     7     8   ar
     8     8     9   ar
     9     9    10    1
    10     9    11   ar
    11    11    12    1
    12    12    13    2
    13    12    14    1
    14    14    15    1
    15    15    16    1
    16    16    17    1
    17    17    18   ar
    18    15    19    1
    19    19    20   ar
    20    20    21   ar
    21    21    22   ar
    22    22    23    1
    23    22    24   ar
    24    24    25   ar
    25     5    26    1
    26    26    27    1
    27    26    28    1
    28    28    29    1
    29    28    30    1
    30    30    31    1
    31    30     3    1
    32    18     7   ar
    33    25    19   ar
    34    17    11   ar
    35     1    32    1
    36     2    33    1
    37     2    34    1
    38     3    35    1
    39     5    36    1
    40     8    37    1
    41    10    38    1
    42    14    39    1
    43    14    40    1
    44    15    41    1
    45    18    42    1
    46    20    43    1
    47    21    44    1
    48    23    45    1
    49    24    46    1
    50    25    47    1
    51    26    48    1
    52    27    49    1
    53    28    50    1
    54    29    51    1
    55    30    52    1
    56    31    53    1
