@<TRIPOS>MOLECULE
Pinocembrin
 31 33 0 0 0
SMALL
GASTEIGER

@<TRIPOS>ATOM
      1 O          -4.3567   -2.7358   -0.8515 O.3     1  UNL1       -0.5065
      2 C          -3.5847   -1.6542   -0.4332 C.ar    1  UNL1        0.1238
      3 C          -4.1750   -0.5684    0.2258 C.ar    1  UNL1        0.0222
      4 C          -3.3929    0.5147    0.6543 C.ar    1  UNL1        0.1343
      5 O          -3.9965    1.5786    1.3245 O.3     1  UNL1       -0.5058
      6 C          -2.0025    0.5124    0.4110 C.ar    1  UNL1        0.1007
      7 C          -1.1041    1.5964    0.8774 C.2     1  UNL1        0.1740
      8 O          -1.5656    2.6537    1.3848 O.2     1  UNL1       -0.2917
      9 C           0.3839    1.4046    0.8028 C.3     1  UNL1        0.0520
     10 C           0.7498    0.6009   -0.4552 C.3     1  UNL1        0.1322
     11 O          -0.0489   -0.5819   -0.5468 O.3     1  UNL1       -0.4828
     12 C          -1.4217   -0.5738   -0.2722 C.ar    1  UNL1        0.1389
     13 C          -2.2094   -1.6549   -0.6765 C.ar    1  UNL1        0.0225
     14 C           2.2145    0.2376   -0.4498 C.ar    1  UNL1       -0.0069
     15 C           3.1352    0.9987   -1.1911 C.ar    1  UNL1       -0.0551
     16 C           4.4971    0.6823   -1.1632 C.ar    1  UNL1       -0.0614
     17 C           4.9524   -0.3878   -0.3887 C.ar    1  UNL1       -0.0617
     18 C           4.0472   -1.1411    0.3633 C.ar    1  UNL1       -0.0614
     19 C           2.6846   -0.8287    0.3386 C.ar    1  UNL1       -0.0551
     20 H          -5.3569   -2.7663   -0.6912 H       1  UNL1        0.2921
     21 H          -5.2416   -0.5696    0.4125 H       1  UNL1        0.0691
     22 H          -4.9927    1.5944    1.5098 H       1  UNL1        0.2922
     23 H           0.7124    0.8612    1.7152 H       1  UNL1        0.0385
     24 H           0.8942    2.3924    0.7753 H       1  UNL1        0.0385
     25 H           0.5248    1.2294   -1.3465 H       1  UNL1        0.0789
     26 H          -1.7530   -2.4909   -1.1916 H       1  UNL1        0.0691
     27 H           2.8001    1.8370   -1.7892 H       1  UNL1        0.0621
     28 H           5.2002    1.2694   -1.7397 H       1  UNL1        0.0618
     29 H           6.0070   -0.6302   -0.3674 H       1  UNL1        0.0618
     30 H           4.4020   -1.9652    0.9686 H       1  UNL1        0.0618
     31 H           1.9969   -1.4151    0.9353 H       1  UNL1        0.0621
@<TRIPOS>BOND
     1     1     2    1
     2     2     3   ar
     3     3     4   ar
     4     4     5    1
     5     4     6   ar
     6     6     7    1
     7     7     8    2
     8     7     9    1
     9     9    10    1
    10    10    11    1
    11    11    12    1
    12    12    13   ar
    13    10    14    1
    14    14    15   ar
    15    15    16   ar
    16    16    17   ar
    17    17    18   ar
    18    18    19   ar
    19    13     2   ar
    20    19    14   ar
    21    12     6   ar
    22     1    20    1
    23     3    21    1
    24     5    22    1
    25     9    23    1
    26     9    24    1
    27    10    25    1
    28    13    26    1
    29    15    27    1
    30    16    28    1
    31    17    29    1
    32    18    30    1
    33    19    31    1
