@<TRIPOS>MOLECULE
8-Prenylnaringenin
 45 47 0 0 0
SMALL
GASTEIGER

@<TRIPOS>ATOM
      1 C          -3.2202    2.3085    1.5966 C.3     1  UNL1       -0.0440
      2 C          -3.2038    0.7983    1.6139 C.2     1  UNL1       -0.0793
      3 C          -3.7787    0.0581    2.7935 C.3     1  UNL1       -0.0440
      4 C          -2.6826    0.0860    0.5929 C.2     1  UNL1       -0.0807
      5 C          -2.0814    0.7238   -0.6356 C.3     1  UNL1       -0.0023
      6 C          -1.5725   -0.3305   -1.5961 C.ar    1  UNL1        0.0403
      7 C          -0.2016   -0.6624   -1.6073 C.ar    1  UNL1        0.1423
      8 O           0.6710   -0.0239   -0.7111 O.3     1  UNL1       -0.4826
      9 C           2.0939   -0.0597   -0.8430 C.3     1  UNL1        0.1322
     10 C           2.5389   -1.4721   -1.2581 C.3     1  UNL1        0.0520
     11 C           1.7611   -1.8855   -2.4708 C.2     1  UNL1        0.1740
     12 O           2.3700   -2.3748   -3.4587 O.2     1  UNL1       -0.2917
     13 C           0.2983   -1.6364   -2.4993 C.ar    1  UNL1        0.1009
     14 C          -0.5997   -2.3165   -3.3569 C.ar    1  UNL1        0.1343
     15 O          -0.2089   -3.3595   -4.2000 O.3     1  UNL1       -0.5058
     16 C          -1.9532   -1.9743   -3.3464 C.ar    1  UNL1        0.0225
     17 C          -2.4526   -1.0114   -2.4682 C.ar    1  UNL1        0.1273
     18 O          -3.8293   -0.7726   -2.4784 O.3     1  UNL1       -0.5062
     19 C           2.7218    0.4693    0.4349 C.ar    1  UNL1       -0.0067
     20 C           2.3645    1.7613    0.8622 C.ar    1  UNL1       -0.0516
     21 C           2.9087    2.3046    2.0291 C.ar    1  UNL1       -0.0198
     22 C           3.8231    1.5696    2.7867 C.ar    1  UNL1        0.1169
     23 O           4.3575    2.1232    3.9479 O.3     1  UNL1       -0.5068
     24 C           4.1941    0.2854    2.3711 C.ar    1  UNL1       -0.0198
     25 C           3.6518   -0.2629    1.2045 C.ar    1  UNL1       -0.0516
     26 H          -3.7999    2.6716    0.7222 H       1  UNL1        0.0274
     27 H          -3.6903    2.7212    2.5133 H       1  UNL1        0.0274
     28 H          -2.1822    2.6983    1.5398 H       1  UNL1        0.0274
     29 H          -2.9912   -0.5689    3.2629 H       1  UNL1        0.0274
     30 H          -4.1733    0.7540    3.5627 H       1  UNL1        0.0274
     31 H          -4.6107   -0.5961    2.4565 H       1  UNL1        0.0274
     32 H          -2.6941   -1.0005    0.6566 H       1  UNL1        0.0575
     33 H          -1.2585    1.4029   -0.3276 H       1  UNL1        0.0358
     34 H          -2.8293    1.3691   -1.1415 H       1  UNL1        0.0358
     35 H           2.3807    0.6354   -1.6641 H       1  UNL1        0.0789
     36 H           3.6285   -1.4788   -1.4811 H       1  UNL1        0.0385
     37 H           2.3223   -2.1987   -0.4455 H       1  UNL1        0.0385
     38 H           0.6841   -3.8268   -4.1445 H       1  UNL1        0.2922
     39 H          -2.6375   -2.4972   -4.0035 H       1  UNL1        0.0691
     40 H          -4.2948   -0.1512   -1.8306 H       1  UNL1        0.2921
     41 H           1.6584    2.3501    0.2889 H       1  UNL1        0.0623
     42 H           2.6193    3.2991    2.3442 H       1  UNL1        0.0654
     43 H           5.0232    1.6155    4.5188 H       1  UNL1        0.2921
     44 H           4.9048   -0.2896    2.9512 H       1  UNL1        0.0654
     45 H           3.9702   -1.2547    0.9179 H       1  UNL1        0.0623
@<TRIPOS>BOND
     1     1     2    1
     2     2     3    1
     3     2     4    2
     4     4     5    1
     5     5     6    1
     6     6     7   ar
     7     7     8    1
     8     8     9    1
     9     9    10    1
    10    10    11    1
    11    11    12    2
    12    11    13    1
    13    13    14   ar
    14    14    15    1
    15    14    16   ar
    16    16    17   ar
    17    17    18    1
    18     9    19    1
    19    19    20   ar
    20    20    21   ar
    21    21    22   ar
    22    22    23    1
    23    22    24   ar
    24    24    25   ar
    25    17     6   ar
    26    25    19   ar
    27    13     7   ar
    28     1    26    1
    29     1    27    1
    30     1    28    1
    31     3    29    1
    32     3    30    1
    33     3    31    1
    34     4    32    1
    35     5    33    1
    36     5    34    1
    37     9    35    1
    38    10    36    1
    39    10    37    1
    40    15    38    1
    41    16    39    1
    42    18    40    1
    43    20    41    1
    44    21    42    1
    45    23    43    1
    46    24    44    1
    47    25    45    1
