@<TRIPOS>MOLECULE
6-Prenylnaringenin
 45 47 0 0 0
SMALL
GASTEIGER

@<TRIPOS>ATOM
      1 C           6.5271   -0.8414    0.6095 C.3     1  UNL1       -0.0440
      2 C           5.7012    0.2925    0.0500 C.2     1  UNL1       -0.0793
      3 C           6.3802    1.4227   -0.6793 C.3     1  UNL1       -0.0440
      4 C           4.3586    0.3222    0.1853 C.2     1  UNL1       -0.0807
      5 C           3.5763   -0.7556    0.8960 C.3     1  UNL1       -0.0023
      6 C           2.0897   -0.4704    0.8399 C.ar    1  UNL1        0.0400
      7 C           1.4435    0.0847    1.9653 C.ar    1  UNL1        0.1273
      8 O           2.1668    0.3780    3.1222 O.3     1  UNL1       -0.5062
      9 C           0.0715    0.3496    1.9283 C.ar    1  UNL1        0.0228
     10 C          -0.6697    0.0892    0.7789 C.ar    1  UNL1        0.1389
     11 O          -2.0386    0.3836    0.7667 O.3     1  UNL1       -0.4828
     12 C          -2.7903    0.4521   -0.4474 C.3     1  UNL1        0.1322
     13 C          -2.4049   -0.7020   -1.3844 C.3     1  UNL1        0.0520
     14 C          -0.9113   -0.7701   -1.5269 C.2     1  UNL1        0.1740
     15 O          -0.4155   -1.1376   -2.6257 O.2     1  UNL1       -0.2917
     16 C          -0.0504   -0.4630   -0.3556 C.ar    1  UNL1        0.1009
     17 C           1.3381   -0.7257   -0.3381 C.ar    1  UNL1        0.1378
     18 O           1.9459   -1.2341   -1.4913 O.3     1  UNL1       -0.5055
     19 C          -4.2684    0.4236   -0.1439 C.ar    1  UNL1       -0.0067
     20 C          -5.1500    1.2666   -0.8417 C.ar    1  UNL1       -0.0516
     21 C          -6.5236    1.2209   -0.5843 C.ar    1  UNL1       -0.0198
     22 C          -7.0333    0.3272    0.3628 C.ar    1  UNL1        0.1169
     23 O          -8.4040    0.2932    0.6088 O.3     1  UNL1       -0.5068
     24 C          -6.1621   -0.5264    1.0522 C.ar    1  UNL1       -0.0198
     25 C          -4.7882   -0.4830    0.7972 C.ar    1  UNL1       -0.0516
     26 H           7.6088   -0.6947    0.4094 H       1  UNL1        0.0274
     27 H           6.3887   -0.9051    1.7091 H       1  UNL1        0.0274
     28 H           6.2202   -1.8004    0.1421 H       1  UNL1        0.0274
     29 H           7.4800    1.2810   -0.7238 H       1  UNL1        0.0274
     30 H           5.9949    1.4831   -1.7192 H       1  UNL1        0.0274
     31 H           6.1738    2.3823   -0.1594 H       1  UNL1        0.0274
     32 H           3.8112    1.1629   -0.2371 H       1  UNL1        0.0575
     33 H           3.7836   -1.7480    0.4440 H       1  UNL1        0.0358
     34 H           3.9279   -0.8237    1.9469 H       1  UNL1        0.0358
     35 H           1.7237    0.7784    3.9409 H       1  UNL1        0.2921
     36 H          -0.4212    0.7743    2.7940 H       1  UNL1        0.0691
     37 H          -2.5310    1.4108   -0.9512 H       1  UNL1        0.0789
     38 H          -2.7612   -1.6699   -0.9698 H       1  UNL1        0.0385
     39 H          -2.8763   -0.5471   -2.3798 H       1  UNL1        0.0385
     40 H           2.9403   -1.3905   -1.5841 H       1  UNL1        0.2922
     41 H          -4.7753    1.9586   -1.5856 H       1  UNL1        0.0623
     42 H          -7.1932    1.8783   -1.1241 H       1  UNL1        0.0654
     43 H          -8.8043   -0.3435    1.2880 H       1  UNL1        0.2921
     44 H          -6.5486   -1.2259    1.7825 H       1  UNL1        0.0654
     45 H          -4.1302   -1.1575    1.3310 H       1  UNL1        0.0623
@<TRIPOS>BOND
     1     1     2    1
     2     2     3    1
     3     2     4    2
     4     4     5    1
     5     5     6    1
     6     6     7   ar
     7     7     8    1
     8     7     9   ar
     9     9    10   ar
    10    10    11    1
    11    11    12    1
    12    12    13    1
    13    13    14    1
    14    14    15    2
    15    14    16    1
    16    16    17   ar
    17    17    18    1
    18    12    19    1
    19    19    20   ar
    20    20    21   ar
    21    21    22   ar
    22    22    23    1
    23    22    24   ar
    24    24    25   ar
    25    17     6   ar
    26    25    19   ar
    27    16    10   ar
    28     1    26    1
    29     1    27    1
    30     1    28    1
    31     3    29    1
    32     3    30    1
    33     3    31    1
    34     4    32    1
    35     5    33    1
    36     5    34    1
    37     8    35    1
    38     9    36    1
    39    12    37    1
    40    13    38    1
    41    13    39    1
    42    18    40    1
    43    20    41    1
    44    21    42    1
    45    23    43    1
    46    24    44    1
    47    25    45    1
