@<TRIPOS>MOLECULE
6-Geranylnaringenin
 58 60 0 0 0
SMALL
GASTEIGER

@<TRIPOS>ATOM
      1 C          -7.0946    0.1459    1.6497 C.3     1  UNL1       -0.0440
      2 C          -5.5861    0.1644    1.7197 C.2     1  UNL1       -0.0796
      3 C          -4.8770   -0.6341    2.7827 C.3     1  UNL1       -0.0440
      4 C          -4.8475    0.8823    0.8478 C.2     1  UNL1       -0.0850
      5 C          -5.4542    1.7166   -0.2573 C.3     1  UNL1       -0.0308
      6 C          -4.3872    2.3773   -1.1415 C.3     1  UNL1       -0.0286
      7 C          -3.6351    1.3560   -1.9699 C.2     1  UNL1       -0.0759
      8 C          -4.3084    0.7677   -3.1865 C.3     1  UNL1       -0.0438
      9 C          -2.4017    0.9600   -1.5869 C.2     1  UNL1       -0.0805
     10 C          -1.6039   -0.0854   -2.3268 C.3     1  UNL1       -0.0023
     11 C          -0.2700   -0.3220   -1.6506 C.ar    1  UNL1        0.0400
     12 C           0.8228    0.5625   -1.8510 C.ar    1  UNL1        0.1378
     13 O           0.6950    1.7063   -2.6467 O.3     1  UNL1       -0.5055
     14 C           2.0608    0.3019   -1.2214 C.ar    1  UNL1        0.1009
     15 C           2.1940   -0.8177   -0.3819 C.ar    1  UNL1        0.1389
     16 O           3.4199   -1.1010    0.2327 O.3     1  UNL1       -0.4828
     17 C           4.6411   -0.4891   -0.1892 C.3     1  UNL1        0.1322
     18 C           4.4256    1.0061   -0.4664 C.3     1  UNL1        0.0520
     19 C           3.2394    1.1941   -1.3682 C.2     1  UNL1        0.1740
     20 O           3.2466    2.1369   -2.2045 O.2     1  UNL1       -0.2917
     21 C           5.7098   -0.6902    0.8572 C.ar    1  UNL1       -0.0067
     22 C           7.0229   -1.0128    0.4742 C.ar    1  UNL1       -0.0516
     23 C           8.0221   -1.1698    1.4396 C.ar    1  UNL1       -0.0198
     24 C           7.7232   -0.9955    2.7973 C.ar    1  UNL1        0.1169
     25 O           8.7106   -1.1497    3.7677 O.3     1  UNL1       -0.5068
     26 C           6.4218   -0.6604    3.1835 C.ar    1  UNL1       -0.0198
     27 C           5.4205   -0.5028    2.2206 C.ar    1  UNL1       -0.0516
     28 C           1.1039   -1.6497   -0.1411 C.ar    1  UNL1        0.0228
     29 C          -0.1244   -1.4101   -0.7637 C.ar    1  UNL1        0.1273
     30 O          -1.2038   -2.2544   -0.4994 O.3     1  UNL1       -0.5062
     31 H          -7.4925    1.1758    1.7657 H       1  UNL1        0.0274
     32 H          -7.4237   -0.2697    0.6743 H       1  UNL1        0.0274
     33 H          -7.5319   -0.4819    2.4537 H       1  UNL1        0.0274
     34 H          -5.5922   -1.1818    3.4308 H       1  UNL1        0.0274
     35 H          -4.2759    0.0451    3.4237 H       1  UNL1        0.0274
     36 H          -4.2011   -1.3757    2.3062 H       1  UNL1        0.0274
     37 H          -3.7653    0.8619    0.9480 H       1  UNL1        0.0572
     38 H          -6.1152    1.0840   -0.8882 H       1  UNL1        0.0310
     39 H          -6.0754    2.5167    0.1995 H       1  UNL1        0.0310
     40 H          -3.6945    2.9778   -0.5106 H       1  UNL1        0.0313
     41 H          -4.8868    3.0950   -1.8275 H       1  UNL1        0.0313
     42 H          -3.6993    0.9682   -4.0926 H       1  UNL1        0.0274
     43 H          -5.3127    1.2155   -3.3412 H       1  UNL1        0.0274
     44 H          -4.4365   -0.3275   -3.0585 H       1  UNL1        0.0274
     45 H          -1.9600    1.4056   -0.6981 H       1  UNL1        0.0575
     46 H          -2.1909   -1.0270   -2.3712 H       1  UNL1        0.0358
     47 H          -1.4467    0.2209   -3.3819 H       1  UNL1        0.0358
     48 H          -0.1739    2.0087   -3.0657 H       1  UNL1        0.2922
     49 H           4.9527   -0.9781   -1.1400 H       1  UNL1        0.0789
     50 H           4.2325    1.5498    0.4837 H       1  UNL1        0.0385
     51 H           5.3368    1.4324   -0.9407 H       1  UNL1        0.0385
     52 H           7.2742   -1.1420   -0.5713 H       1  UNL1        0.0623
     53 H           9.0283   -1.4233    1.1311 H       1  UNL1        0.0654
     54 H           9.6631   -1.3912    3.5200 H       1  UNL1        0.2921
     55 H           6.1869   -0.5183    4.2307 H       1  UNL1        0.0654
     56 H           4.4208   -0.2323    2.5374 H       1  UNL1        0.0623
     57 H           1.2164   -2.4944    0.5271 H       1  UNL1        0.0691
     58 H          -1.1232   -3.0398    0.1359 H       1  UNL1        0.2921
@<TRIPOS>BOND
     1     1     2    1
     2     2     3    1
     3     2     4    2
     4     4     5    1
     5     5     6    1
     6     6     7    1
     7     7     8    1
     8     7     9    2
     9     9    10    1
    10    10    11    1
    11    11    12   ar
    12    12    13    1
    13    12    14   ar
    14    14    15   ar
    15    15    16    1
    16    16    17    1
    17    17    18    1
    18    18    19    1
    19    19    20    2
    20    17    21    1
    21    21    22   ar
    22    22    23   ar
    23    23    24   ar
    24    24    25    1
    25    24    26   ar
    26    26    27   ar
    27    15    28   ar
    28    28    29   ar
    29    29    30    1
    30    29    11   ar
    31    19    14    1
    32    27    21   ar
    33     1    31    1
    34     1    32    1
    35     1    33    1
    36     3    34    1
    37     3    35    1
    38     3    36    1
    39     4    37    1
    40     5    38    1
    41     5    39    1
    42     6    40    1
    43     6    41    1
    44     8    42    1
    45     8    43    1
    46     8    44    1
    47     9    45    1
    48    10    46    1
    49    10    47    1
    50    13    48    1
    51    17    49    1
    52    18    50    1
    53    18    51    1
    54    22    52    1
    55    23    53    1
    56    25    54    1
    57    26    55    1
    58    27    56    1
    59    28    57    1
    60    30    58    1
