@<TRIPOS>MOLECULE
Isoxanthohumol
 48 50 0 0 0
SMALL
GASTEIGER

@<TRIPOS>ATOM
      1 C          -1.1363    5.8072    0.1429 C.3     1  UNL1        0.0788
      2 O          -0.2610    4.6870    0.0587 O.3     1  UNL1       -0.4942
      3 C          -0.6651    3.3738   -0.2364 C.ar    1  UNL1        0.1376
      4 C           0.2999    2.3450   -0.2873 C.ar    1  UNL1        0.1012
      5 C           1.7351    2.5822    0.0109 C.2     1  UNL1        0.1740
      6 O           2.1892    3.7491    0.1545 O.2     1  UNL1       -0.2917
      7 C           2.6538    1.4103    0.2044 C.3     1  UNL1        0.0520
      8 C           2.2656    0.2744   -0.7597 C.3     1  UNL1        0.1322
      9 O           0.8660    0.0085   -0.6463 O.3     1  UNL1       -0.4826
     10 C          -0.0956    1.0270   -0.5895 C.ar    1  UNL1        0.1423
     11 C          -1.4490    0.7206   -0.8231 C.ar    1  UNL1        0.0403
     12 C          -1.8677   -0.7037   -1.1022 C.3     1  UNL1       -0.0023
     13 C          -2.0807   -1.4381    0.1996 C.2     1  UNL1       -0.0807
     14 C          -3.2129   -2.0900    0.5457 C.2     1  UNL1       -0.0793
     15 C          -3.2592   -2.7853    1.8821 C.3     1  UNL1       -0.0440
     16 C          -4.4191   -2.1437   -0.3608 C.3     1  UNL1       -0.0440
     17 C          -2.4105    1.7438   -0.7466 C.ar    1  UNL1        0.1273
     18 O          -3.7605    1.4539   -0.9459 O.3     1  UNL1       -0.5062
     19 C          -2.0162    3.0579   -0.4697 C.ar    1  UNL1        0.0227
     20 C           3.0333   -1.0234   -0.5701 C.ar    1  UNL1       -0.0067
     21 C           2.6668   -2.1333   -1.3540 C.ar    1  UNL1       -0.0516
     22 C           3.3465   -3.3486   -1.2354 C.ar    1  UNL1       -0.0198
     23 C           4.4107   -3.4745   -0.3401 C.ar    1  UNL1        0.1169
     24 O           5.0789   -4.6920   -0.2316 O.3     1  UNL1       -0.5068
     25 C           4.7968   -2.3759    0.4367 C.ar    1  UNL1       -0.0198
     26 C           4.1197   -1.1578    0.3218 C.ar    1  UNL1       -0.0516
     27 H          -1.8851    5.6473    0.9472 H       1  UNL1        0.0660
     28 H          -0.5431    6.7124    0.3859 H       1  UNL1        0.0660
     29 H          -1.6462    5.9678   -0.8304 H       1  UNL1        0.0660
     30 H           3.7031    1.7249    0.0128 H       1  UNL1        0.0385
     31 H           2.5576    1.0673    1.2572 H       1  UNL1        0.0385
     32 H           2.4666    0.6293   -1.7954 H       1  UNL1        0.0789
     33 H          -1.0754   -1.2305   -1.6753 H       1  UNL1        0.0358
     34 H          -2.7620   -0.7145   -1.7570 H       1  UNL1        0.0358
     35 H          -1.2406   -1.4529    0.8907 H       1  UNL1        0.0575
     36 H          -4.2363   -3.2824    2.0549 H       1  UNL1        0.0274
     37 H          -3.0975   -2.0460    2.6952 H       1  UNL1        0.0274
     38 H          -2.4628   -3.5580    1.9309 H       1  UNL1        0.0274
     39 H          -4.7994   -1.1177   -0.5468 H       1  UNL1        0.0274
     40 H          -5.2431   -2.7337    0.0912 H       1  UNL1        0.0274
     41 H          -4.1473   -2.6235   -1.3246 H       1  UNL1        0.0274
     42 H          -4.4735    2.1721   -0.8943 H       1  UNL1        0.2921
     43 H          -2.7758    3.8262   -0.4264 H       1  UNL1        0.0691
     44 H           1.8491   -2.0573   -2.0606 H       1  UNL1        0.0623
     45 H           3.0466   -4.1931   -1.8428 H       1  UNL1        0.0654
     46 H           5.8552   -4.8148    0.4080 H       1  UNL1        0.2921
     47 H           5.6246   -2.4636    1.1290 H       1  UNL1        0.0654
     48 H           4.4570   -0.3338    0.9339 H       1  UNL1        0.0623
@<TRIPOS>BOND
     1     1     2    1
     2     2     3    1
     3     3     4   ar
     4     4     5    1
     5     5     6    2
     6     5     7    1
     7     7     8    1
     8     8     9    1
     9     9    10    1
    10    10    11   ar
    11    11    12    1
    12    12    13    1
    13    13    14    2
    14    14    15    1
    15    14    16    1
    16    11    17   ar
    17    17    18    1
    18    17    19   ar
    19     8    20    1
    20    20    21   ar
    21    21    22   ar
    22    22    23   ar
    23    23    24    1
    24    23    25   ar
    25    25    26   ar
    26    19     3   ar
    27    26    20   ar
    28    10     4   ar
    29     1    27    1
    30     1    28    1
    31     1    29    1
    32     7    30    1
    33     7    31    1
    34     8    32    1
    35    12    33    1
    36    12    34    1
    37    13    35    1
    38    15    36    1
    39    15    37    1
    40    15    38    1
    41    16    39    1
    42    16    40    1
    43    16    41    1
    44    18    42    1
    45    19    43    1
    46    21    44    1
    47    22    45    1
    48    24    46    1
    49    25    47    1
    50    26    48    1
