@<TRIPOS>MOLECULE
Eriodictyol 7-O-glucoside
 54 57 0 0 0
SMALL
GASTEIGER

@<TRIPOS>ATOM
      1 O          -3.0970    2.3251    1.7552 O.3     1  UNL1       -0.3924
      2 C          -4.2457    1.8048    1.1451 C.3     1  UNL1        0.0731
      3 C          -4.1194    1.9183   -0.3800 C.3     1  UNL1        0.1140
      4 O          -2.9303    1.2745   -0.8361 O.3     1  UNL1       -0.3313
      5 C          -3.1567   -0.0739   -1.2097 C.3     1  UNL1        0.2308
      6 O          -1.9028   -0.7199   -1.4343 O.3     1  UNL1       -0.4606
      7 C          -0.9206   -0.9435   -0.4568 C.ar    1  UNL1        0.1310
      8 C          -1.1154   -0.6309    0.8996 C.ar    1  UNL1        0.0226
      9 C          -0.1135   -0.8767    1.8457 C.ar    1  UNL1        0.1343
     10 O          -0.4141   -0.6182    3.1849 O.3     1  UNL1       -0.5058
     11 C           1.1333   -1.4019    1.4229 C.ar    1  UNL1        0.1007
     12 C           2.2873   -1.6190    2.3229 C.2     1  UNL1        0.1740
     13 O           2.4269   -0.9667    3.3912 O.2     1  UNL1       -0.2917
     14 C           3.3459   -2.5942    1.9081 C.3     1  UNL1        0.0520
     15 C           3.7059   -2.3938    0.4255 C.3     1  UNL1        0.1323
     16 O           2.5312   -2.2686   -0.3882 O.3     1  UNL1       -0.4828
     17 C           1.3166   -1.7290    0.0646 C.ar    1  UNL1        0.1389
     18 C           0.2918   -1.5078   -0.8577 C.ar    1  UNL1        0.0229
     19 C           4.6355   -1.2094    0.2362 C.ar    1  UNL1       -0.0033
     20 C           4.1433    0.1012    0.0878 C.ar    1  UNL1       -0.0099
     21 C           5.0207    1.1831   -0.0475 C.ar    1  UNL1        0.1586
     22 O           4.4949    2.4657   -0.2003 O.3     1  UNL1       -0.5033
     23 C           6.4080    0.9660   -0.0253 C.ar    1  UNL1        0.1582
     24 O           7.2866    2.0397   -0.1613 O.3     1  UNL1       -0.5033
     25 C           6.9039   -0.3336    0.1372 C.ar    1  UNL1       -0.0162
     26 C           6.0258   -1.4113    0.2730 C.ar    1  UNL1       -0.0514
     27 C          -4.0151   -0.1411   -2.4980 C.3     1  UNL1        0.1454
     28 O          -3.2023   -0.0227   -3.6396 O.3     1  UNL1       -0.3829
     29 C          -5.0789    0.9830   -2.5280 C.3     1  UNL1        0.1152
     30 O          -6.2458    0.5324   -3.1660 O.3     1  UNL1       -0.3864
     31 C          -5.4170    1.4398   -1.1000 C.3     1  UNL1        0.1120
     32 O          -6.3966    2.4499   -1.1042 O.3     1  UNL1       -0.3865
     33 H          -3.2224    2.1991    2.7315 H       1  UNL1        0.2095
     34 H          -4.3799    0.7406    1.4403 H       1  UNL1        0.0584
     35 H          -5.1361    2.3801    1.4847 H       1  UNL1        0.0584
     36 H          -3.9888    2.9987   -0.6098 H       1  UNL1        0.0647
     37 H          -3.6883   -0.6258   -0.4003 H       1  UNL1        0.1084
     38 H          -2.0553   -0.2245    1.2414 H       1  UNL1        0.0691
     39 H           0.1533   -0.9318    3.9592 H       1  UNL1        0.2922
     40 H           2.9462   -3.6213    2.0500 H       1  UNL1        0.0385
     41 H           4.2509   -2.4902    2.5467 H       1  UNL1        0.0385
     42 H           4.2372   -3.3090    0.0836 H       1  UNL1        0.0789
     43 H           0.4473   -1.7584   -1.8997 H       1  UNL1        0.0691
     44 H           3.0805    0.2953    0.0777 H       1  UNL1        0.0659
     45 H           5.0868    3.2816   -0.3009 H       1  UNL1        0.2923
     46 H           8.2913    1.9083   -0.1474 H       1  UNL1        0.2923
     47 H           7.9718   -0.5097    0.1627 H       1  UNL1        0.0655
     48 H           6.4320   -2.4060    0.4093 H       1  UNL1        0.0623
     49 H          -4.5381   -1.1281   -2.5059 H       1  UNL1        0.0683
     50 H          -2.8704   -0.9327   -3.8582 H       1  UNL1        0.2102
     51 H          -4.6712    1.8647   -3.0789 H       1  UNL1        0.0648
     52 H          -6.0372    0.4790   -4.1353 H       1  UNL1        0.2100
     53 H          -5.8414    0.5654   -0.5568 H       1  UNL1        0.0647
     54 H          -6.0545    3.2031   -1.6534 H       1  UNL1        0.2100
@<TRIPOS>BOND
     1     1     2    1
     2     2     3    1
     3     3     4    1
     4     4     5    1
     5     5     6    1
     6     6     7    1
     7     7     8   ar
     8     8     9   ar
     9     9    10    1
    10     9    11   ar
    11    11    12    1
    12    12    13    2
    13    12    14    1
    14    14    15    1
    15    15    16    1
    16    16    17    1
    17    17    18   ar
    18    15    19    1
    19    19    20   ar
    20    20    21   ar
    21    21    22    1
    22    21    23   ar
    23    23    24    1
    24    23    25   ar
    25    25    26   ar
    26     5    27    1
    27    27    28    1
    28    27    29    1
    29    29    30    1
    30    29    31    1
    31    31    32    1
    32    31     3    1
    33    18     7   ar
    34    26    19   ar
    35    17    11   ar
    36     1    33    1
    37     2    34    1
    38     2    35    1
    39     3    36    1
    40     5    37    1
    41     8    38    1
    42    10    39    1
    43    14    40    1
    44    14    41    1
    45    15    42    1
    46    18    43    1
    47    20    44    1
    48    22    45    1
    49    24    46    1
    50    25    47    1
    51    26    48    1
    52    27    49    1
    53    28    50    1
    54    29    51    1
    55    30    52    1
    56    31    53    1
    57    32    54    1
