@<TRIPOS>MOLECULE
Sakuranetin
 35 37 0 0 0
SMALL
GASTEIGER

@<TRIPOS>ATOM
      1 C           4.8606    1.4086   -1.8157 C.3     1  UNL1        0.0788
      2 O           4.8256    0.1382   -1.1737 O.3     1  UNL1       -0.4949
      3 C           3.6907   -0.4057   -0.5535 C.ar    1  UNL1        0.1271
      4 C           3.7982   -1.6672    0.0376 C.ar    1  UNL1        0.0225
      5 C           2.6996   -2.2745    0.6571 C.ar    1  UNL1        0.1343
      6 O           2.8716   -3.5745    1.1380 O.3     1  UNL1       -0.5058
      7 C           1.4688   -1.5740    0.7396 C.ar    1  UNL1        0.1007
      8 C           0.2625   -2.0894    1.4332 C.2     1  UNL1        0.1740
      9 O           0.3381   -2.9735    2.3268 O.2     1  UNL1       -0.2917
     10 C          -1.0719   -1.4903    1.1024 C.3     1  UNL1        0.0520
     11 C          -0.9325    0.0367    1.0284 C.3     1  UNL1        0.1322
     12 O           0.1504    0.4018    0.1678 O.3     1  UNL1       -0.4828
     13 C           1.3614   -0.3040    0.1345 C.ar    1  UNL1        0.1389
     14 C           2.4586    0.2672   -0.5141 C.ar    1  UNL1        0.0227
     15 C          -2.2146    0.6668    0.5420 C.ar    1  UNL1       -0.0067
     16 C          -2.5457    0.6513   -0.8247 C.ar    1  UNL1       -0.0516
     17 C          -3.7489    1.2094   -1.2666 C.ar    1  UNL1       -0.0198
     18 C          -4.6390    1.7786   -0.3508 C.ar    1  UNL1        0.1169
     19 O          -5.8341    2.3313   -0.8054 O.3     1  UNL1       -0.5068
     20 C          -4.3223    1.7850    1.0141 C.ar    1  UNL1       -0.0198
     21 C          -3.1197    1.2276    1.4591 C.ar    1  UNL1       -0.0516
     22 H           4.6203    2.2115   -1.0870 H       1  UNL1        0.0660
     23 H           4.1394    1.4298   -2.6600 H       1  UNL1        0.0660
     24 H           5.8802    1.5850   -2.2152 H       1  UNL1        0.0660
     25 H           4.7417   -2.1971   -0.0115 H       1  UNL1        0.0691
     26 H           2.1122   -4.1781    1.4175 H       1  UNL1        0.2922
     27 H          -1.4086   -1.8959    0.1237 H       1  UNL1        0.0385
     28 H          -1.8216   -1.7626    1.8777 H       1  UNL1        0.0385
     29 H          -0.6943    0.4145    2.0485 H       1  UNL1        0.0789
     30 H           2.3429    1.2411   -0.9701 H       1  UNL1        0.0691
     31 H          -1.8735    0.2050   -1.5472 H       1  UNL1        0.0623
     32 H          -3.9916    1.1961   -2.3216 H       1  UNL1        0.0654
     33 H          -6.5003    2.7503   -0.1670 H       1  UNL1        0.2921
     34 H          -5.0083    2.2182    1.7309 H       1  UNL1        0.0654
     35 H          -2.8958    1.2329    2.5187 H       1  UNL1        0.0623
@<TRIPOS>BOND
     1     1     2    1
     2     2     3    1
     3     3     4   ar
     4     4     5   ar
     5     5     6    1
     6     5     7   ar
     7     7     8    1
     8     8     9    2
     9     8    10    1
    10    10    11    1
    11    11    12    1
    12    12    13    1
    13    13    14   ar
    14    11    15    1
    15    15    16   ar
    16    16    17   ar
    17    17    18   ar
    18    18    19    1
    19    18    20   ar
    20    20    21   ar
    21    14     3   ar
    22    21    15   ar
    23    13     7   ar
    24     1    22    1
    25     1    23    1
    26     1    24    1
    27     4    25    1
    28     6    26    1
    29    10    27    1
    30    10    28    1
    31    11    29    1
    32    14    30    1
    33    16    31    1
    34    17    32    1
    35    19    33    1
    36    20    34    1
    37    21    35    1
