@<TRIPOS>MOLECULE
Apigenin
 30 32 0 0 0
SMALL
GASTEIGER

@<TRIPOS>ATOM
      1 O          -6.1285   -0.4595    0.0609 O.3     1  UNL1       -0.5068
      2 C          -4.7530   -0.2436    0.0183 C.ar    1  UNL1        0.1169
      3 C          -3.8935   -1.3146   -0.2392 C.ar    1  UNL1       -0.0195
      4 C          -2.5109   -1.1129   -0.2853 C.ar    1  UNL1       -0.0476
      5 C          -1.9674    0.1689   -0.0835 C.ar    1  UNL1        0.0176
      6 C          -2.8411    1.2409    0.1879 C.ar    1  UNL1       -0.0476
      7 C          -4.2233    1.0345    0.2341 C.ar    1  UNL1       -0.0195
      8 C          -0.4948    0.3534   -0.1289 C.ar    1  UNL1        0.1392
      9 C           0.0876    1.5827   -0.4796 C.ar    1  UNL1        0.0288
     10 C           1.4778    1.7009   -0.5076 C.ar    1  UNL1        0.1966
     11 O           1.9911    2.8079   -0.8248 O.2     1  UNL1       -0.2869
     12 C           2.2773    0.5855   -0.1875 C.ar    1  UNL1        0.1055
     13 C           3.6919    0.6200   -0.1904 C.ar    1  UNL1        0.1347
     14 O           4.3805    1.7900   -0.5128 O.3     1  UNL1       -0.5058
     15 C           4.4159   -0.5367    0.1353 C.ar    1  UNL1        0.0223
     16 C           3.7547   -1.7231    0.4619 C.ar    1  UNL1        0.1239
     17 O           4.4976   -2.8576    0.7808 O.3     1  UNL1       -0.5065
     18 C           2.3563   -1.7630    0.4663 C.ar    1  UNL1        0.0231
     19 C           1.6166   -0.6211    0.1457 C.ar    1  UNL1        0.1462
     20 O           0.2888   -0.6836    0.1585 O.2     1  UNL1       -0.4544
     21 H          -6.7776    0.2963    0.2462 H       1  UNL1        0.2921
     22 H          -4.2974   -2.3055   -0.4039 H       1  UNL1        0.0654
     23 H          -1.8666   -1.9589   -0.4908 H       1  UNL1        0.0626
     24 H          -2.4630    2.2338    0.3901 H       1  UNL1        0.0626
     25 H          -4.8813    1.8679    0.4451 H       1  UNL1        0.0654
     26 H          -0.5212    2.4343   -0.7545 H       1  UNL1        0.0693
     27 H           5.3932    1.8280   -0.5185 H       1  UNL1        0.2922
     28 H           5.4986   -0.5144    0.1343 H       1  UNL1        0.0691
     29 H           4.0494   -3.7338    1.0223 H       1  UNL1        0.2921
     30 H           1.8424   -2.6822    0.7197 H       1  UNL1        0.0691
@<TRIPOS>BOND
     1     1     2    1
     2     2     3   ar
     3     3     4   ar
     4     4     5   ar
     5     5     6   ar
     6     6     7   ar
     7     5     8    1
     8     8     9   ar
     9     9    10   ar
    10    10    11    2
    11    10    12   ar
    12    12    13   ar
    13    13    14    1
    14    13    15   ar
    15    15    16   ar
    16    16    17    1
    17    16    18   ar
    18    18    19   ar
    19    19    20   ar
    20     7     2   ar
    21    20     8   ar
    22    19    12   ar
    23     1    21    1
    24     3    22    1
    25     4    23    1
    26     6    24    1
    27     7    25    1
    28     9    26    1
    29    14    27    1
    30    15    28    1
    31    17    29    1
    32    18    30    1
