@<TRIPOS>MOLECULE
Pelargonidin
 31 33 0 0 0
SMALL
GASTEIGER

@<TRIPOS>ATOM
      1 O           6.0423   -1.0305    0.2907 O.3     1  UNL1       -0.5068
      2 C           4.6879   -0.7114    0.2270 C.ar    1  UNL1        0.1169
      3 C           3.7481   -1.4315    0.9757 C.ar    1  UNL1       -0.0193
      4 C           2.3912   -1.1018    0.9040 C.ar    1  UNL1       -0.0420
      5 C           1.9589   -0.0379    0.0945 C.ar    1  UNL1        0.0830
      6 C           2.9065    0.6678   -0.6697 C.ar    1  UNL1       -0.0420
      7 C           4.2627    0.3351   -0.5966 C.ar    1  UNL1       -0.0193
      8 C           0.5144    0.2780    0.0169 C.ar    1  UNL1        0.4042
      9 O          -0.3498   -0.7329   -0.0171 O.2     1  UNL1       -0.1997
     10 C          -1.6659   -0.5659   -0.0954 C.ar    1  UNL1        0.3708
     11 C          -2.2264    0.7332   -0.1464 C.ar    1  UNL1        0.1241
     12 C          -1.3408    1.8221   -0.0959 C.ar    1  UNL1        0.0090
     13 C           0.0367    1.6017   -0.0032 C.ar    1  UNL1        0.2238
     14 O           0.9129    2.6825    0.0975 O.3     1  UNL1       -0.4995
     15 C          -3.6354    0.8769   -0.2357 C.ar    1  UNL1        0.1366
     16 O          -4.2751    2.1184   -0.2963 O.3     1  UNL1       -0.5057
     17 C          -4.4429   -0.2668   -0.2672 C.ar    1  UNL1        0.0225
     18 C          -3.8784   -1.5463   -0.2139 C.ar    1  UNL1        0.1293
     19 O          -4.6867   -2.6805   -0.2456 O.3     1  UNL1       -0.5063
     20 C          -2.4934   -1.6913   -0.1288 C.ar    1  UNL1        0.0847
     21 H           6.3817   -1.7843    0.8768 H       1  UNL1        0.2921
     22 H           4.0672   -2.2474    1.6116 H       1  UNL1        0.0654
     23 H           1.6792   -1.6699    1.4902 H       1  UNL1        0.0628
     24 H           2.5991    1.4580   -1.3422 H       1  UNL1        0.0628
     25 H           4.9833    0.8858   -1.1880 H       1  UNL1        0.0654
     26 H          -1.6888    2.8428   -0.1114 H       1  UNL1        0.0667
     27 H           0.5806    3.6397    0.0929 H       1  UNL1        0.2925
     28 H          -3.7967    3.0073   -0.2935 H       1  UNL1        0.2922
     29 H          -5.5183   -0.1579   -0.3346 H       1  UNL1        0.0691
     30 H          -5.6957   -2.6106   -0.3072 H       1  UNL1        0.2921
     31 H          -2.0583   -2.6824   -0.0888 H       1  UNL1        0.0749
@<TRIPOS>UNITY_ATOM_ATTR
9 1
charge 1
@<TRIPOS>BOND
     1     1     2    1
     2     2     3   ar
     3     3     4   ar
     4     4     5   ar
     5     5     6   ar
     6     6     7   ar
     7     5     8    1
     8     8     9   ar
     9     9    10   ar
    10    10    11   ar
    11    11    12   ar
    12    12    13   ar
    13    13    14    1
    14    11    15   ar
    15    15    16    1
    16    15    17   ar
    17    17    18   ar
    18    18    19    1
    19    18    20   ar
    20     7     2   ar
    21    13     8   ar
    22    20    10   ar
    23     1    21    1
    24     3    22    1
    25     4    23    1
    26     6    24    1
    27     7    25    1
    28    12    26    1
    29    14    27    1
    30    16    28    1
    31    17    29    1
    32    19    30    1
    33    20    31    1
