@<TRIPOS>MOLECULE
Luteolin
 31 33 0 0 0
SMALL
GASTEIGER

@<TRIPOS>ATOM
      1 O          -5.0407    2.2022   -1.0796 O.3     1  UNL1       -0.5065
      2 C          -4.1559    1.2171   -0.6464 C.ar    1  UNL1        0.1239
      3 C          -4.6559    0.0324   -0.1073 C.ar    1  UNL1        0.0223
      4 C          -3.7969   -0.9860    0.3242 C.ar    1  UNL1        0.1347
      5 O          -4.4014   -2.1666    0.7660 O.3     1  UNL1       -0.5058
      6 C          -2.3851   -0.7850    0.2694 C.ar    1  UNL1        0.1055
      7 C          -1.4223   -1.6891    0.7779 C.ar    1  UNL1        0.1966
      8 O          -1.7502   -2.7355    1.3948 O.2     1  UNL1       -0.2869
      9 C          -0.0629   -1.4089    0.6324 C.ar    1  UNL1        0.0288
     10 C           0.3367   -0.2178    0.0110 C.ar    1  UNL1        0.1393
     11 O          -0.5877    0.6400   -0.4085 O.2     1  UNL1       -0.4544
     12 C          -1.8937    0.4195   -0.3011 C.ar    1  UNL1        0.1462
     13 C          -2.7769    1.4021   -0.7546 C.ar    1  UNL1        0.0231
     14 C           1.7689    0.1295   -0.1706 C.ar    1  UNL1        0.0211
     15 C           2.7610   -0.8625   -0.2975 C.ar    1  UNL1       -0.0059
     16 C           4.1065   -0.5088   -0.4784 C.ar    1  UNL1        0.1589
     17 O           5.0804   -1.4988   -0.6009 O.3     1  UNL1       -0.5033
     18 C           4.4705    0.8461   -0.5402 C.ar    1  UNL1        0.1583
     19 O           5.7998    1.2291   -0.7158 O.3     1  UNL1       -0.5033
     20 C           3.4880    1.8333   -0.4280 C.ar    1  UNL1       -0.0159
     21 C           2.1482    1.4805   -0.2498 C.ar    1  UNL1       -0.0474
     22 H          -4.7102    3.0733   -1.4784 H       1  UNL1        0.2921
     23 H          -5.7278   -0.1122   -0.0486 H       1  UNL1        0.0691
     24 H          -3.9344   -3.0562    0.8523 H       1  UNL1        0.2922
     25 H           0.6659   -2.0983    1.0396 H       1  UNL1        0.0693
     26 H          -2.3872    2.3181   -1.1817 H       1  UNL1        0.0691
     27 H           2.4975   -1.9116   -0.2831 H       1  UNL1        0.0662
     28 H           4.8451   -2.4836   -0.5607 H       1  UNL1        0.2923
     29 H           6.5480    0.5518   -0.8028 H       1  UNL1        0.2923
     30 H           3.7641    2.8790   -0.4788 H       1  UNL1        0.0655
     31 H           1.4086    2.2669   -0.1615 H       1  UNL1        0.0626
@<TRIPOS>BOND
     1     1     2    1
     2     2     3   ar
     3     3     4   ar
     4     4     5    1
     5     4     6   ar
     6     6     7   ar
     7     7     8    2
     8     7     9   ar
     9     9    10   ar
    10    10    11   ar
    11    11    12   ar
    12    12    13   ar
    13    10    14    1
    14    14    15   ar
    15    15    16   ar
    16    16    17    1
    17    16    18   ar
    18    18    19    1
    19    18    20   ar
    20    20    21   ar
    21    13     2   ar
    22    21    14   ar
    23    12     6   ar
    24     1    22    1
    25     3    23    1
    26     5    24    1
    27     9    25    1
    28    13    26    1
    29    15    27    1
    30    17    28    1
    31    19    29    1
    32    20    30    1
    33    21    31    1
