@<TRIPOS>MOLECULE
Diosmin
 75 79 0 0 0
SMALL
GASTEIGER

@<TRIPOS>ATOM
      1 C          10.8839   -1.4770   -1.0517 C.3     1  UNL1        0.0790
      2 O          10.5370   -0.5943    0.0104 O.3     1  UNL1       -0.4915
      3 C           9.2227   -0.3337    0.4290 C.ar    1  UNL1        0.1613
      4 C           9.0228    0.5599    1.4895 C.ar    1  UNL1        0.1591
      5 O          10.1233    1.1683    2.0916 O.3     1  UNL1       -0.5033
      6 C           7.7254    0.8439    1.9395 C.ar    1  UNL1       -0.0059
      7 C           6.6086    0.2329    1.3392 C.ar    1  UNL1        0.0211
      8 C           6.8159   -0.6501    0.2667 C.ar    1  UNL1       -0.0474
      9 C           8.1076   -0.9357   -0.1819 C.ar    1  UNL1       -0.0156
     10 C           5.2236    0.5231    1.7886 C.ar    1  UNL1        0.1393
     11 C           4.9376    0.9044    3.1098 C.ar    1  UNL1        0.0288
     12 C           3.6170    1.1640    3.4786 C.ar    1  UNL1        0.1966
     13 O           3.3698    1.5051    4.6668 O.2     1  UNL1       -0.2869
     14 C           2.5898    1.0360    2.5223 C.ar    1  UNL1        0.1055
     15 C           1.2287    1.2847    2.8104 C.ar    1  UNL1        0.1347
     16 O           0.8266    1.6858    4.0850 O.3     1  UNL1       -0.5058
     17 C           0.2657    1.1270    1.8038 C.ar    1  UNL1        0.0226
     18 C           0.6265    0.7193    0.5162 C.ar    1  UNL1        0.1310
     19 O          -0.3949    0.5793   -0.4369 O.3     1  UNL1       -0.4606
     20 C          -0.2954   -0.0922   -1.6968 C.3     1  UNL1        0.2308
     21 O          -1.3716    0.3212   -2.5346 O.3     1  UNL1       -0.3313
     22 C          -2.5943   -0.3709   -2.3070 C.3     1  UNL1        0.1144
     23 C          -3.2091   -0.0358   -0.9294 C.3     1  UNL1        0.0796
     24 O          -4.5517   -0.4848   -0.8682 O.3     1  UNL1       -0.3461
     25 C          -5.4621    0.5736   -1.1128 C.3     1  UNL1        0.1879
     26 O          -5.5193    1.4438    0.0154 O.3     1  UNL1       -0.3431
     27 C          -6.3649    0.9249    1.0246 C.3     1  UNL1        0.0873
     28 C          -6.1277    1.7022    2.3190 C.3     1  UNL1       -0.0361
     29 C          -7.8484    1.0181    0.5805 C.3     1  UNL1        0.1095
     30 O          -8.5797    0.0074    1.2275 O.3     1  UNL1       -0.3866
     31 C          -7.9802    0.8693   -0.9559 C.3     1  UNL1        0.1140
     32 O          -7.9211    2.1421   -1.5519 O.3     1  UNL1       -0.3864
     33 C          -6.8453   -0.0207   -1.4991 C.3     1  UNL1        0.1341
     34 O          -6.9371   -0.1490   -2.8951 O.3     1  UNL1       -0.3841
     35 C          -2.4655   -1.9041   -2.5625 C.3     1  UNL1        0.1120
     36 O          -3.1214   -2.2768   -3.7500 O.3     1  UNL1       -0.3865
     37 C          -0.9898   -2.3478   -2.6072 C.3     1  UNL1        0.1152
     38 O          -0.8820   -3.7457   -2.4897 O.3     1  UNL1       -0.3864
     39 C          -0.2023   -1.6329   -1.5037 C.3     1  UNL1        0.1454
     40 O           1.1397   -2.0488   -1.5575 O.3     1  UNL1       -0.3829
     41 C           1.9813    0.4853    0.2251 C.ar    1  UNL1        0.0235
     42 C           2.9557    0.6369    1.2158 C.ar    1  UNL1        0.1462
     43 O           4.2286    0.4022    0.9127 O.2     1  UNL1       -0.4544
     44 H          11.9873   -1.4927   -1.1641 H       1  UNL1        0.0660
     45 H          10.4346   -1.1240   -2.0038 H       1  UNL1        0.0660
     46 H          10.5353   -2.5061   -0.8222 H       1  UNL1        0.0660
     47 H          10.0155    1.8200    2.8601 H       1  UNL1        0.2923
     48 H           7.5991    1.5608    2.7396 H       1  UNL1        0.0662
     49 H           5.9764   -1.1319   -0.2197 H       1  UNL1        0.0626
     50 H           8.2277   -1.6268   -1.0049 H       1  UNL1        0.0655
     51 H           5.7190    0.9755    3.8554 H       1  UNL1        0.0693
     52 H          -0.1460    1.8671    4.3047 H       1  UNL1        0.2922
     53 H          -0.7777    1.3155    2.0250 H       1  UNL1        0.0691
     54 H           0.6215    0.2556   -2.2168 H       1  UNL1        0.1084
     55 H          -3.3096    0.0338   -3.0556 H       1  UNL1        0.0647
     56 H          -2.6480   -0.5629   -0.1307 H       1  UNL1        0.0587
     57 H          -3.0963    1.0546   -0.7199 H       1  UNL1        0.0587
     58 H          -5.1246    1.1894   -1.9797 H       1  UNL1        0.0937
     59 H          -6.1002   -0.1389    1.2370 H       1  UNL1        0.0621
     60 H          -6.3321    2.7837    2.1668 H       1  UNL1        0.0255
     61 H          -6.7867    1.3162    3.1257 H       1  UNL1        0.0255
     62 H          -5.0706    1.5833    2.6389 H       1  UNL1        0.0255
     63 H          -8.2615    2.0139    0.8725 H       1  UNL1        0.0646
     64 H          -9.5363    0.2706    1.1848 H       1  UNL1        0.2100
     65 H          -8.9633    0.3966   -1.1919 H       1  UNL1        0.0648
     66 H          -8.3350    2.0615   -2.4507 H       1  UNL1        0.2100
     67 H          -6.9453   -1.0302   -1.0326 H       1  UNL1        0.0671
     68 H          -7.7106   -0.7440   -3.0781 H       1  UNL1        0.2101
     69 H          -2.9656   -2.4514   -1.7331 H       1  UNL1        0.0647
     70 H          -2.6997   -1.7755   -4.4966 H       1  UNL1        0.2100
     71 H          -0.5494   -2.0560   -3.5871 H       1  UNL1        0.0648
     72 H          -1.2120   -4.0018   -1.5887 H       1  UNL1        0.2100
     73 H          -0.6575   -1.9081   -0.5207 H       1  UNL1        0.0683
     74 H           1.4382   -2.2078   -0.6242 H       1  UNL1        0.2102
     75 H           2.2992    0.1970   -0.7656 H       1  UNL1        0.0691
@<TRIPOS>BOND
     1     1     2    1
     2     2     3    1
     3     3     4   ar
     4     4     5    1
     5     4     6   ar
     6     6     7   ar
     7     7     8   ar
     8     8     9   ar
     9     7    10    1
    10    10    11   ar
    11    11    12   ar
    12    12    13    2
    13    12    14   ar
    14    14    15   ar
    15    15    16    1
    16    15    17   ar
    17    17    18   ar
    18    18    19    1
    19    19    20    1
    20    20    21    1
    21    21    22    1
    22    22    23    1
    23    23    24    1
    24    24    25    1
    25    25    26    1
    26    26    27    1
    27    27    28    1
    28    27    29    1
    29    29    30    1
    30    29    31    1
    31    31    32    1
    32    31    33    1
    33    33    34    1
    34    22    35    1
    35    35    36    1
    36    35    37    1
    37    37    38    1
    38    37    39    1
    39    39    40    1
    40    18    41   ar
    41    41    42   ar
    42    42    43   ar
    43     9     3   ar
    44    43    10   ar
    45    42    14   ar
    46    39    20    1
    47    33    25    1
    48     1    44    1
    49     1    45    1
    50     1    46    1
    51     5    47    1
    52     6    48    1
    53     8    49    1
    54     9    50    1
    55    11    51    1
    56    16    52    1
    57    17    53    1
    58    20    54    1
    59    22    55    1
    60    23    56    1
    61    23    57    1
    62    25    58    1
    63    27    59    1
    64    28    60    1
    65    28    61    1
    66    28    62    1
    67    29    63    1
    68    30    64    1
    69    31    65    1
    70    32    66    1
    71    33    67    1
    72    34    68    1
    73    35    69    1
    74    36    70    1
    75    37    71    1
    76    38    72    1
    77    39    73    1
    78    40    74    1
    79    41    75    1
