@<TRIPOS>MOLECULE
Isorhoifolin
 71 75 0 0 0
SMALL
GASTEIGER

@<TRIPOS>ATOM
      1 C          -7.4344   -0.0613    0.3851 C.3     1  UNL1       -0.0361
      2 C          -6.0548   -0.6968    0.2060 C.3     1  UNL1        0.0873
      3 O          -5.4537   -0.8145    1.4865 O.3     1  UNL1       -0.3431
      4 C          -4.1111   -1.2742    1.3971 C.3     1  UNL1        0.1879
      5 O          -3.3050   -0.3854    0.6405 O.3     1  UNL1       -0.3461
      6 C          -3.0586    0.7989    1.3727 C.3     1  UNL1        0.0796
      7 C          -2.3484    1.8232    0.4801 C.3     1  UNL1        0.1144
      8 O          -1.1287    1.2587    0.0286 O.3     1  UNL1       -0.3313
      9 C          -0.3554    2.2291   -0.6569 C.3     1  UNL1        0.2308
     10 O           0.9088    1.6604   -0.9947 O.3     1  UNL1       -0.4606
     11 C           1.8753    1.2424   -0.0661 C.ar    1  UNL1        0.1310
     12 C           1.7019    1.3832    1.3230 C.ar    1  UNL1        0.0226
     13 C           2.6916    0.9483    2.2169 C.ar    1  UNL1        0.1347
     14 O           2.4877    1.0997    3.5892 O.3     1  UNL1       -0.5058
     15 C           3.8793    0.3641    1.7198 C.ar    1  UNL1        0.1055
     16 C           4.9170   -0.1021    2.5516 C.ar    1  UNL1        0.1966
     17 O           4.8365   -0.0266    3.8075 O.2     1  UNL1       -0.2869
     18 C           6.0584   -0.6648    1.9792 C.ar    1  UNL1        0.0288
     19 C           6.1576   -0.7550    0.5811 C.ar    1  UNL1        0.1392
     20 O           5.1550   -0.3140   -0.1755 O.2     1  UNL1       -0.4544
     21 C           4.0486    0.2291    0.3223 C.ar    1  UNL1        0.1462
     22 C           3.0512    0.6668   -0.5529 C.ar    1  UNL1        0.0235
     23 C           7.3470   -1.3449   -0.0837 C.ar    1  UNL1        0.0176
     24 C           8.6223   -1.3151    0.5152 C.ar    1  UNL1       -0.0476
     25 C           9.7261   -1.8701   -0.1397 C.ar    1  UNL1       -0.0195
     26 C           9.5776   -2.4543   -1.4003 C.ar    1  UNL1        0.1169
     27 O          10.6867   -3.0041   -2.0392 O.3     1  UNL1       -0.5068
     28 C           8.3173   -2.4781   -2.0096 C.ar    1  UNL1       -0.0195
     29 C           7.2113   -1.9235   -1.3589 C.ar    1  UNL1       -0.0476
     30 C          -1.0698    2.6554   -1.9551 C.3     1  UNL1        0.1454
     31 O          -0.3010    3.5945   -2.6655 O.3     1  UNL1       -0.3829
     32 C          -2.4688    3.2185   -1.6312 C.3     1  UNL1        0.1152
     33 O          -3.1950    3.4194   -2.8161 O.3     1  UNL1       -0.3864
     34 C          -3.2308    2.2298   -0.7300 C.3     1  UNL1        0.1120
     35 O          -4.4542    2.7845   -0.3119 O.3     1  UNL1       -0.3865
     36 C          -4.0506   -2.6873    0.7789 C.3     1  UNL1        0.1341
     37 O          -4.5629   -3.6528    1.6671 O.3     1  UNL1       -0.3841
     38 C          -4.7795   -2.7280   -0.5778 C.3     1  UNL1        0.1140
     39 O          -4.8926   -4.0609   -1.0076 O.3     1  UNL1       -0.3864
     40 C          -6.1727   -2.0768   -0.4778 C.3     1  UNL1        0.1095
     41 O          -6.7095   -1.9146   -1.7667 O.3     1  UNL1       -0.3866
     42 H          -7.3290    0.9254    0.8844 H       1  UNL1        0.0255
     43 H          -8.0827   -0.7094    1.0130 H       1  UNL1        0.0255
     44 H          -7.9230    0.0989   -0.5994 H       1  UNL1        0.0255
     45 H          -5.4680   -0.0083   -0.4437 H       1  UNL1        0.0621
     46 H          -3.7082   -1.3698    2.4328 H       1  UNL1        0.0937
     47 H          -4.0027    1.2493    1.7562 H       1  UNL1        0.0587
     48 H          -2.3970    0.5769    2.2405 H       1  UNL1        0.0587
     49 H          -2.1478    2.7189    1.1146 H       1  UNL1        0.0647
     50 H          -0.1783    3.1261   -0.0176 H       1  UNL1        0.1084
     51 H           0.8020    1.8296    1.7228 H       1  UNL1        0.0691
     52 H           1.6414    1.5157    3.9602 H       1  UNL1        0.2922
     53 H           6.8394   -1.0477    2.6235 H       1  UNL1        0.0693
     54 H           3.1903    0.5576   -1.6216 H       1  UNL1        0.0691
     55 H           8.7789   -0.8433    1.4757 H       1  UNL1        0.0626
     56 H          10.7006   -1.8396    0.3310 H       1  UNL1        0.0654
     57 H          10.6117   -3.4337   -2.9539 H       1  UNL1        0.2921
     58 H           8.1933   -2.9259   -2.9875 H       1  UNL1        0.0654
     59 H           6.2460   -1.9578   -1.8489 H       1  UNL1        0.0626
     60 H          -1.1903    1.7547   -2.5974 H       1  UNL1        0.0683
     61 H          -0.1841    4.3907   -2.0836 H       1  UNL1        0.2102
     62 H          -2.3595    4.1853   -1.0836 H       1  UNL1        0.0648
     63 H          -2.8612    4.2636   -3.2180 H       1  UNL1        0.2100
     64 H          -3.4539    1.3192   -1.3293 H       1  UNL1        0.0647
     65 H          -4.2491    3.5756    0.2520 H       1  UNL1        0.2100
     66 H          -2.9821   -2.9400    0.6013 H       1  UNL1        0.0671
     67 H          -5.4808   -3.3803    1.9258 H       1  UNL1        0.2101
     68 H          -4.1652   -2.1475   -1.3083 H       1  UNL1        0.0648
     69 H          -4.9773   -4.0409   -1.9966 H       1  UNL1        0.2100
     70 H          -6.8433   -2.7238    0.1364 H       1  UNL1        0.0646
     71 H          -7.1396   -2.7750   -2.0121 H       1  UNL1        0.2100
@<TRIPOS>BOND
     1     1     2    1
     2     2     3    1
     3     3     4    1
     4     4     5    1
     5     5     6    1
     6     6     7    1
     7     7     8    1
     8     8     9    1
     9     9    10    1
    10    10    11    1
    11    11    12   ar
    12    12    13   ar
    13    13    14    1
    14    13    15   ar
    15    15    16   ar
    16    16    17    2
    17    16    18   ar
    18    18    19   ar
    19    19    20   ar
    20    20    21   ar
    21    21    22   ar
    22    19    23    1
    23    23    24   ar
    24    24    25   ar
    25    25    26   ar
    26    26    27    1
    27    26    28   ar
    28    28    29   ar
    29     9    30    1
    30    30    31    1
    31    30    32    1
    32    32    33    1
    33    32    34    1
    34    34    35    1
    35     4    36    1
    36    36    37    1
    37    36    38    1
    38    38    39    1
    39    38    40    1
    40    40    41    1
    41    40     2    1
    42    34     7    1
    43    22    11   ar
    44    29    23   ar
    45    21    15   ar
    46     1    42    1
    47     1    43    1
    48     1    44    1
    49     2    45    1
    50     4    46    1
    51     6    47    1
    52     6    48    1
    53     7    49    1
    54     9    50    1
    55    12    51    1
    56    14    52    1
    57    18    53    1
    58    22    54    1
    59    24    55    1
    60    25    56    1
    61    27    57    1
    62    28    58    1
    63    29    59    1
    64    30    60    1
    65    31    61    1
    66    32    62    1
    67    33    63    1
    68    34    64    1
    69    35    65    1
    70    36    66    1
    71    37    67    1
    72    38    68    1
    73    39    69    1
    74    40    70    1
    75    41    71    1
