@<TRIPOS>MOLECULE
Neodiosmin
 75 79 0 0 0
SMALL
GASTEIGER

@<TRIPOS>ATOM
      1 C          11.1226    0.1330   -0.5858 C.3     1  UNL1        0.0790
      2 O           9.8607   -0.3776   -1.0035 O.3     1  UNL1       -0.4915
      3 C           8.6339    0.2735   -0.7999 C.ar    1  UNL1        0.1613
      4 C           7.4641   -0.3430   -1.2628 C.ar    1  UNL1        0.1591
      5 O           7.5459   -1.5765   -1.9072 O.3     1  UNL1       -0.5033
      6 C           6.2199    0.2763   -1.0792 C.ar    1  UNL1       -0.0059
      7 C           6.1257    1.5241   -0.4399 C.ar    1  UNL1        0.0211
      8 C           7.3024    2.1325    0.0344 C.ar    1  UNL1       -0.0474
      9 C           8.5433    1.5163   -0.1467 C.ar    1  UNL1       -0.0156
     10 C           4.7922    2.1499   -0.2526 C.ar    1  UNL1        0.1393
     11 C           4.6323    3.5387   -0.1533 C.ar    1  UNL1        0.0288
     12 C           3.3558    4.0758    0.0190 C.ar    1  UNL1        0.1966
     13 O           3.2512    5.3213    0.1624 O.2     1  UNL1       -0.2869
     14 C           2.2302    3.2181    0.0548 C.ar    1  UNL1        0.1055
     15 C           2.4854    1.8243   -0.0258 C.ar    1  UNL1        0.1462
     16 O           3.7223    1.3649   -0.1827 O.2     1  UNL1       -0.4544
     17 C           1.4396    0.9043    0.0679 C.ar    1  UNL1        0.0235
     18 C           0.1268    1.3308    0.2566 C.ar    1  UNL1        0.1310
     19 O          -0.8753    0.3552    0.3708 O.3     1  UNL1       -0.4606
     20 C          -2.2512    0.6168    0.6590 C.3     1  UNL1        0.2312
     21 O          -2.3715    1.2762    1.9155 O.3     1  UNL1       -0.3313
     22 C          -2.5128    0.4230    3.0506 C.3     1  UNL1        0.1140
     23 C          -1.8639    1.1378    4.2458 C.3     1  UNL1        0.0731
     24 O          -2.2504    0.5375    5.4513 O.3     1  UNL1       -0.3924
     25 C          -1.9129   -1.0006    2.8468 C.3     1  UNL1        0.1120
     26 O          -2.0094   -1.7982    4.0031 O.3     1  UNL1       -0.3865
     27 C          -2.5599   -1.7051    1.6246 C.3     1  UNL1        0.1155
     28 O          -3.5994   -2.5725    2.0090 O.3     1  UNL1       -0.3863
     29 C          -3.0652   -0.6858    0.5722 C.3     1  UNL1        0.1519
     30 O          -2.9202   -1.2252   -0.7331 O.3     1  UNL1       -0.3366
     31 C          -4.1305   -1.7960   -1.1923 C.3     1  UNL1        0.1885
     32 O          -5.0257   -0.7591   -1.5629 O.3     1  UNL1       -0.3431
     33 C          -6.3392   -1.2480   -1.8228 C.3     1  UNL1        0.0873
     34 C          -7.1805   -1.2307   -0.5422 C.3     1  UNL1       -0.0361
     35 C          -6.3658   -2.6426   -2.5192 C.3     1  UNL1        0.1095
     36 O          -7.5030   -2.7806   -3.3358 O.3     1  UNL1       -0.3866
     37 C          -5.0654   -2.8403   -3.3273 C.3     1  UNL1        0.1140
     38 O          -5.0631   -4.0643   -4.0224 O.3     1  UNL1       -0.3864
     39 C          -3.8206   -2.6947   -2.4137 C.3     1  UNL1        0.1341
     40 O          -3.3845   -3.9547   -1.9686 O.3     1  UNL1       -0.3841
     41 C          -0.1445    2.7068    0.3167 C.ar    1  UNL1        0.0226
     42 C           0.8788    3.6544    0.1892 C.ar    1  UNL1        0.1347
     43 O           0.4857    4.9962    0.1796 O.3     1  UNL1       -0.5058
     44 H          11.1394    0.2534    0.5180 H       1  UNL1        0.0660
     45 H          11.9178   -0.5834   -0.8770 H       1  UNL1        0.0660
     46 H          11.3230    1.1070   -1.0802 H       1  UNL1        0.0660
     47 H           6.7199   -2.0501   -2.2542 H       1  UNL1        0.2923
     48 H           5.3275   -0.2147   -1.4485 H       1  UNL1        0.0662
     49 H           7.2694    3.0720    0.5690 H       1  UNL1        0.0626
     50 H           9.4264    2.0125    0.2321 H       1  UNL1        0.0655
     51 H           5.4817    4.2063   -0.2207 H       1  UNL1        0.0693
     52 H           1.6524   -0.1565    0.0112 H       1  UNL1        0.0691
     53 H          -2.6500    1.2993   -0.1230 H       1  UNL1        0.1084
     54 H          -3.6006    0.3253    3.2647 H       1  UNL1        0.0647
     55 H          -2.1909    2.2021    4.2527 H       1  UNL1        0.0584
     56 H          -0.7553    1.1152    4.1434 H       1  UNL1        0.0584
     57 H          -1.7791    1.0340    6.1698 H       1  UNL1        0.2095
     58 H          -0.8282   -0.8754    2.6335 H       1  UNL1        0.0647
     59 H          -2.9483   -1.7634    4.3225 H       1  UNL1        0.2100
     60 H          -1.7691   -2.3321    1.1556 H       1  UNL1        0.0648
     61 H          -4.3199   -2.0212    2.4124 H       1  UNL1        0.2100
     62 H          -4.1202   -0.3954    0.8023 H       1  UNL1        0.0687
     63 H          -4.5770   -2.4394   -0.3958 H       1  UNL1        0.0938
     64 H          -6.8058   -0.5145   -2.5159 H       1  UNL1        0.0621
     65 H          -7.1665   -0.2130   -0.0977 H       1  UNL1        0.0255
     66 H          -8.2327   -1.4999   -0.7747 H       1  UNL1        0.0255
     67 H          -6.7851   -1.9491    0.2058 H       1  UNL1        0.0255
     68 H          -6.4106   -3.4398   -1.7435 H       1  UNL1        0.0646
     69 H          -7.4240   -2.1263   -4.0785 H       1  UNL1        0.2100
     70 H          -5.0188   -2.0298   -4.0892 H       1  UNL1        0.0648
     71 H          -5.2907   -4.7833   -3.3767 H       1  UNL1        0.2100
     72 H          -3.0144   -2.2233   -3.0248 H       1  UNL1        0.0671
     73 H          -2.4636   -3.8323   -1.6178 H       1  UNL1        0.2101
     74 H          -1.1596    3.0613    0.4319 H       1  UNL1        0.0691
     75 H           1.0490    5.7621   -0.1559 H       1  UNL1        0.2922
@<TRIPOS>BOND
     1     1     2    1
     2     2     3    1
     3     3     4   ar
     4     4     5    1
     5     4     6   ar
     6     6     7   ar
     7     7     8   ar
     8     8     9   ar
     9     7    10    1
    10    10    11   ar
    11    11    12   ar
    12    12    13    2
    13    12    14   ar
    14    14    15   ar
    15    15    16   ar
    16    15    17   ar
    17    17    18   ar
    18    18    19    1
    19    19    20    1
    20    20    21    1
    21    21    22    1
    22    22    23    1
    23    23    24    1
    24    22    25    1
    25    25    26    1
    26    25    27    1
    27    27    28    1
    28    27    29    1
    29    29    30    1
    30    30    31    1
    31    31    32    1
    32    32    33    1
    33    33    34    1
    34    33    35    1
    35    35    36    1
    36    35    37    1
    37    37    38    1
    38    37    39    1
    39    39    40    1
    40    18    41   ar
    41    41    42   ar
    42    42    43    1
    43     9     3   ar
    44    16    10   ar
    45    29    20    1
    46    39    31    1
    47    42    14   ar
    48     1    44    1
    49     1    45    1
    50     1    46    1
    51     5    47    1
    52     6    48    1
    53     8    49    1
    54     9    50    1
    55    11    51    1
    56    17    52    1
    57    20    53    1
    58    22    54    1
    59    23    55    1
    60    23    56    1
    61    24    57    1
    62    25    58    1
    63    26    59    1
    64    27    60    1
    65    28    61    1
    66    29    62    1
    67    31    63    1
    68    33    64    1
    69    34    65    1
    70    34    66    1
    71    34    67    1
    72    35    68    1
    73    36    69    1
    74    37    70    1
    75    38    71    1
    76    39    72    1
    77    40    73    1
    78    41    74    1
    79    43    75    1
