@<TRIPOS>MOLECULE
Rhoifolin
 71 75 0 0 0
SMALL
GASTEIGER

@<TRIPOS>ATOM
      1 C          -3.1392    2.4894   -1.4097 C.3     1  UNL1       -0.0361
      2 C          -2.5401    2.6089   -0.0041 C.3     1  UNL1        0.0873
      3 O          -2.1741    1.3234    0.4882 O.3     1  UNL1       -0.3431
      4 C          -3.2332    0.7043    1.1998 C.3     1  UNL1        0.1885
      5 O          -2.8974   -0.6438    1.4663 O.3     1  UNL1       -0.3366
      6 C          -2.9166   -1.4293    0.2827 C.3     1  UNL1        0.1519
      7 C          -3.9971   -2.5169    0.4173 C.3     1  UNL1        0.1155
      8 O          -5.2742   -1.9334    0.3887 O.3     1  UNL1       -0.3863
      9 C          -3.8779   -3.5313   -0.7360 C.3     1  UNL1        0.1120
     10 O          -4.7712   -4.6000   -0.5403 O.3     1  UNL1       -0.3865
     11 C          -2.4127   -4.0270   -0.8652 C.3     1  UNL1        0.1140
     12 C          -2.2394   -4.9638   -2.0719 C.3     1  UNL1        0.0731
     13 O          -2.9316   -6.1691   -1.8851 O.3     1  UNL1       -0.3924
     14 O          -1.5439   -2.9217   -1.0452 O.3     1  UNL1       -0.3313
     15 C          -1.5422   -2.0957    0.1064 C.3     1  UNL1        0.2312
     16 O          -0.5608   -1.0739   -0.0587 O.3     1  UNL1       -0.4606
     17 C           0.8232   -1.2896   -0.1364 C.ar    1  UNL1        0.1310
     18 C           1.3974   -2.5697   -0.0363 C.ar    1  UNL1        0.0226
     19 C           2.7872   -2.7401   -0.1212 C.ar    1  UNL1        0.1347
     20 O           3.3261   -4.0235   -0.0205 O.3     1  UNL1       -0.5058
     21 C           3.6227   -1.6145   -0.3068 C.ar    1  UNL1        0.1055
     22 C           5.0257   -1.7027   -0.4069 C.ar    1  UNL1        0.1966
     23 O           5.6207   -2.8123   -0.3409 O.2     1  UNL1       -0.2869
     24 C           5.7778   -0.5412   -0.5879 C.ar    1  UNL1        0.0288
     25 C           5.1247    0.7000   -0.6641 C.ar    1  UNL1        0.1392
     26 O           3.7973    0.7471   -0.5757 O.2     1  UNL1       -0.4544
     27 C           3.0382   -0.3304   -0.4035 C.ar    1  UNL1        0.1462
     28 C           1.6519   -0.1803   -0.3183 C.ar    1  UNL1        0.0235
     29 C           5.8721    1.9684   -0.8568 C.ar    1  UNL1        0.0176
     30 C           5.2322    3.0628   -1.4670 C.ar    1  UNL1       -0.0476
     31 C           5.9110    4.2708   -1.6523 C.ar    1  UNL1       -0.0195
     32 C           7.2336    4.4080   -1.2232 C.ar    1  UNL1        0.1169
     33 O           7.8974    5.6176   -1.4148 O.3     1  UNL1       -0.5068
     34 C           7.8768    3.3304   -0.6024 C.ar    1  UNL1       -0.0195
     35 C           7.2020    2.1200   -0.4160 C.ar    1  UNL1       -0.0476
     36 C          -3.4612    1.4318    2.5422 C.3     1  UNL1        0.1341
     37 O          -4.7746    1.1742    2.9748 O.3     1  UNL1       -0.3841
     38 C          -3.2114    2.9565    2.4050 C.3     1  UNL1        0.1140
     39 O          -4.0341    3.6694    3.2951 O.3     1  UNL1       -0.3864
     40 C          -3.4603    3.4175    0.9597 C.3     1  UNL1        0.1095
     41 O          -3.1888    4.7915    0.8503 O.3     1  UNL1       -0.3866
     42 H          -3.2862    3.4975   -1.8514 H       1  UNL1        0.0255
     43 H          -2.4476    1.9176   -2.0641 H       1  UNL1        0.0255
     44 H          -4.1170    1.9651   -1.3838 H       1  UNL1        0.0255
     45 H          -1.5902    3.1779   -0.1107 H       1  UNL1        0.0621
     46 H          -4.1856    0.7442    0.6151 H       1  UNL1        0.0938
     47 H          -3.1246   -0.8441   -0.6485 H       1  UNL1        0.0687
     48 H          -3.8484   -3.0572    1.3834 H       1  UNL1        0.0648
     49 H          -5.4407   -1.5594    1.2932 H       1  UNL1        0.2100
     50 H          -4.1597   -3.0173   -1.6822 H       1  UNL1        0.0647
     51 H          -4.4961   -5.0746    0.2875 H       1  UNL1        0.2100
     52 H          -2.1208   -4.5986    0.0475 H       1  UNL1        0.0647
     53 H          -2.6191   -4.4695   -2.9917 H       1  UNL1        0.0584
     54 H          -1.1565   -5.1724   -2.2313 H       1  UNL1        0.0584
     55 H          -2.4062   -6.7007   -1.2316 H       1  UNL1        0.2095
     56 H          -1.2922   -2.6788    1.0244 H       1  UNL1        0.1084
     57 H           0.7749   -3.4419    0.1077 H       1  UNL1        0.0691
     58 H           2.7399   -4.8394    0.1121 H       1  UNL1        0.2922
     59 H           6.8523   -0.6179   -0.6933 H       1  UNL1        0.0693
     60 H           1.2135    0.8076   -0.3940 H       1  UNL1        0.0691
     61 H           4.2089    2.9808   -1.8123 H       1  UNL1        0.0626
     62 H           5.4077    5.1017   -2.1302 H       1  UNL1        0.0654
     63 H           8.8562    5.7488   -1.1139 H       1  UNL1        0.2921
     64 H           8.8979    3.4316   -0.2571 H       1  UNL1        0.0654
     65 H           7.7172    1.3182    0.0951 H       1  UNL1        0.0626
     66 H          -2.7328    1.0309    3.2882 H       1  UNL1        0.0671
     67 H          -4.7724    1.2366    3.9658 H       1  UNL1        0.2101
     68 H          -2.1393    3.1494    2.6532 H       1  UNL1        0.0648
     69 H          -3.5999    4.5482    3.4526 H       1  UNL1        0.2100
     70 H          -4.5348    3.2276    0.7223 H       1  UNL1        0.0646
     71 H          -3.6345    5.1064    0.0213 H       1  UNL1        0.2100
@<TRIPOS>BOND
     1     1     2    1
     2     2     3    1
     3     3     4    1
     4     4     5    1
     5     5     6    1
     6     6     7    1
     7     7     8    1
     8     7     9    1
     9     9    10    1
    10     9    11    1
    11    11    12    1
    12    12    13    1
    13    11    14    1
    14    14    15    1
    15    15    16    1
    16    16    17    1
    17    17    18   ar
    18    18    19   ar
    19    19    20    1
    20    19    21   ar
    21    21    22   ar
    22    22    23    2
    23    22    24   ar
    24    24    25   ar
    25    25    26   ar
    26    26    27   ar
    27    27    28   ar
    28    25    29    1
    29    29    30   ar
    30    30    31   ar
    31    31    32   ar
    32    32    33    1
    33    32    34   ar
    34    34    35   ar
    35     4    36    1
    36    36    37    1
    37    36    38    1
    38    38    39    1
    39    38    40    1
    40    40    41    1
    41    40     2    1
    42    15     6    1
    43    28    17   ar
    44    35    29   ar
    45    27    21   ar
    46     1    42    1
    47     1    43    1
    48     1    44    1
    49     2    45    1
    50     4    46    1
    51     6    47    1
    52     7    48    1
    53     8    49    1
    54     9    50    1
    55    10    51    1
    56    11    52    1
    57    12    53    1
    58    12    54    1
    59    13    55    1
    60    15    56    1
    61    18    57    1
    62    20    58    1
    63    24    59    1
    64    28    60    1
    65    30    61    1
    66    31    62    1
    67    33    63    1
    68    34    64    1
    69    35    65    1
    70    36    66    1
    71    37    67    1
    72    38    68    1
    73    39    69    1
    74    40    70    1
    75    41    71    1
