@<TRIPOS>MOLECULE
Sinensetin
 47 49 0 0 0
SMALL
GASTEIGER

@<TRIPOS>ATOM
      1 C           7.0100   -1.1310   -2.0211 C.3     1  UNL1        0.0790
      2 O           6.4662   -0.6149   -0.8105 O.3     1  UNL1       -0.4915
      3 C           5.1014   -0.3667   -0.5940 C.ar    1  UNL1        0.1615
      4 C           4.7056    0.1432    0.6514 C.ar    1  UNL1        0.1622
      5 O           5.6958    0.3725    1.6204 O.3     1  UNL1       -0.4914
      6 C           5.4475    0.8887    2.9242 C.3     1  UNL1        0.0790
      7 C           3.3430    0.4056    0.8974 C.ar    1  UNL1       -0.0056
      8 C           2.3742    0.1701   -0.0959 C.ar    1  UNL1        0.0211
      9 C           2.7837   -0.3547   -1.3310 C.ar    1  UNL1       -0.0474
     10 C           4.1314   -0.6163   -1.5813 C.ar    1  UNL1       -0.0156
     11 C           0.9323    0.4313    0.1429 C.ar    1  UNL1        0.1393
     12 C           0.4966    1.4236    1.0325 C.ar    1  UNL1        0.0288
     13 C          -0.8711    1.6266    1.2170 C.ar    1  UNL1        0.1967
     14 O          -1.2443    2.5242    2.0197 O.2     1  UNL1       -0.2869
     15 C          -1.8020    0.8343    0.5045 C.ar    1  UNL1        0.1093
     16 C          -3.2073    0.9784    0.6391 C.ar    1  UNL1        0.1795
     17 O          -3.6808    1.9599    1.5366 O.3     1  UNL1       -0.4905
     18 C          -5.0340    2.2850    1.8359 C.3     1  UNL1        0.0790
     19 C          -4.0773    0.1432   -0.1210 C.ar    1  UNL1        0.2045
     20 O          -5.4669    0.3104    0.0351 O.3     1  UNL1       -0.4885
     21 C          -6.5067   -0.4098   -0.6182 C.3     1  UNL1        0.0791
     22 C          -3.5262   -0.8233   -1.0048 C.ar    1  UNL1        0.1687
     23 O          -4.3733   -1.6510   -1.7597 O.3     1  UNL1       -0.4912
     24 C          -3.9415   -2.6527   -2.6758 C.3     1  UNL1        0.0790
     25 C          -2.1328   -0.9436   -1.1168 C.ar    1  UNL1        0.0270
     26 C          -1.2801   -0.1336   -0.3781 C.ar    1  UNL1        0.1465
     27 O           0.0328   -0.2896   -0.5199 O.2     1  UNL1       -0.4543
     28 H           6.5865   -2.1356   -2.2323 H       1  UNL1        0.0660
     29 H           6.7934   -0.4394   -2.8625 H       1  UNL1        0.0660
     30 H           8.1099   -1.2251   -1.9131 H       1  UNL1        0.0660
     31 H           4.7804    0.2016    3.4864 H       1  UNL1        0.0660
     32 H           6.4096    0.9736    3.4694 H       1  UNL1        0.0660
     33 H           4.9882    1.8975    2.8547 H       1  UNL1        0.0660
     34 H           3.0363    0.7668    1.8678 H       1  UNL1        0.0662
     35 H           2.0599   -0.5521   -2.1124 H       1  UNL1        0.0626
     36 H           4.4087   -1.0127   -2.5484 H       1  UNL1        0.0655
     37 H           1.2019    2.0540    1.5591 H       1  UNL1        0.0693
     38 H          -5.5527    1.4090    2.2787 H       1  UNL1        0.0660
     39 H          -5.5554    2.6451    0.9243 H       1  UNL1        0.0660
     40 H          -5.0466    3.1042    2.5836 H       1  UNL1        0.0660
     41 H          -6.4540   -0.2528   -1.7159 H       1  UNL1        0.0660
     42 H          -6.4490   -1.4885   -0.3617 H       1  UNL1        0.0660
     43 H          -7.4842   -0.0245   -0.2630 H       1  UNL1        0.0660
     44 H          -3.3423   -3.4230   -2.1458 H       1  UNL1        0.0660
     45 H          -3.3442   -2.1933   -3.4914 H       1  UNL1        0.0660
     46 H          -4.8315   -3.1420   -3.1216 H       1  UNL1        0.0660
     47 H          -1.6913   -1.6727   -1.7828 H       1  UNL1        0.0692
@<TRIPOS>BOND
     1     1     2    1
     2     2     3    1
     3     3     4   ar
     4     4     5    1
     5     5     6    1
     6     4     7   ar
     7     7     8   ar
     8     8     9   ar
     9     9    10   ar
    10     8    11    1
    11    11    12   ar
    12    12    13   ar
    13    13    14    2
    14    13    15   ar
    15    15    16   ar
    16    16    17    1
    17    17    18    1
    18    16    19   ar
    19    19    20    1
    20    20    21    1
    21    19    22   ar
    22    22    23    1
    23    23    24    1
    24    22    25   ar
    25    25    26   ar
    26    26    27   ar
    27    10     3   ar
    28    27    11   ar
    29    26    15   ar
    30     1    28    1
    31     1    29    1
    32     1    30    1
    33     6    31    1
    34     6    32    1
    35     6    33    1
    36     7    34    1
    37     9    35    1
    38    10    36    1
    39    12    37    1
    40    18    38    1
    41    18    39    1
    42    18    40    1
    43    21    41    1
    44    21    42    1
    45    21    43    1
    46    24    44    1
    47    24    45    1
    48    24    46    1
    49    25    47    1
