@<TRIPOS>MOLECULE
Nobiletin
 51 53 0 0 0
SMALL
GASTEIGER

@<TRIPOS>ATOM
      1 C           7.0077    1.7485   -2.3494 C.3     1  UNL1        0.0790
      2 O           6.5866    1.1794   -1.1139 O.3     1  UNL1       -0.4915
      3 C           5.2466    0.9734   -0.7490 C.ar    1  UNL1        0.1615
      4 C           4.9768    0.4006    0.5028 C.ar    1  UNL1        0.1622
      5 O           6.0628    0.0564    1.3238 O.3     1  UNL1       -0.4914
      6 C           5.9456   -0.5275    2.6173 C.3     1  UNL1        0.0790
      7 C           3.6416    0.1845    0.8985 C.ar    1  UNL1       -0.0056
      8 C           2.5739    0.5448    0.0553 C.ar    1  UNL1        0.0211
      9 C           2.8602    1.1022   -1.2001 C.ar    1  UNL1       -0.0474
     10 C           4.1800    1.3194   -1.5979 C.ar    1  UNL1       -0.0156
     11 C           1.1595    0.3192    0.4466 C.ar    1  UNL1        0.1395
     12 C           0.7526    0.3188    1.7884 C.ar    1  UNL1        0.0288
     13 C          -0.5902    0.1035    2.0957 C.ar    1  UNL1        0.1969
     14 O          -0.9442    0.1094    3.3057 O.2     1  UNL1       -0.2869
     15 C          -1.5214   -0.1045    1.0547 C.ar    1  UNL1        0.1130
     16 C          -1.0378   -0.0830   -0.2703 C.ar    1  UNL1        0.1881
     17 O           0.2549    0.1261   -0.5092 O.2     1  UNL1       -0.4507
     18 C          -1.8973   -0.2901   -1.3562 C.ar    1  UNL1        0.2088
     19 O          -1.3021   -0.2736   -2.6342 O.3     1  UNL1       -0.4884
     20 C          -1.9541   -0.4511   -3.8869 C.3     1  UNL1        0.0791
     21 C          -3.2824   -0.4973   -1.1318 C.ar    1  UNL1        0.2110
     22 O          -4.1168   -0.7083   -2.2459 O.3     1  UNL1       -0.4883
     23 C          -5.4965   -1.0586   -2.2350 C.3     1  UNL1        0.0791
     24 C          -3.7791   -0.4717    0.1973 C.ar    1  UNL1        0.2082
     25 O          -5.1546   -0.5563    0.4323 O.3     1  UNL1       -0.4884
     26 C          -5.8910    0.4945    1.0509 C.3     1  UNL1        0.0791
     27 C          -2.8916   -0.3421    1.2869 C.ar    1  UNL1        0.1798
     28 O          -3.3626   -0.4555    2.6008 O.3     1  UNL1       -0.4905
     29 C          -3.9599   -1.6491    3.0972 C.3     1  UNL1        0.0790
     30 H           6.6625    1.1195   -3.1970 H       1  UNL1        0.0660
     31 H           8.1159    1.7930   -2.3687 H       1  UNL1        0.0660
     32 H           6.6088    2.7799   -2.4505 H       1  UNL1        0.0660
     33 H           5.4350   -1.5112    2.5475 H       1  UNL1        0.0660
     34 H           6.9602   -0.6839    3.0373 H       1  UNL1        0.0660
     35 H           5.3820    0.1501    3.2928 H       1  UNL1        0.0660
     36 H           3.4368   -0.2871    1.8482 H       1  UNL1        0.0662
     37 H           2.0594    1.3833   -1.8733 H       1  UNL1        0.0626
     38 H           4.3600    1.7586   -2.5695 H       1  UNL1        0.0655
     39 H           1.4559    0.5097    2.5890 H       1  UNL1        0.0693
     40 H          -2.7090    0.3476   -4.0451 H       1  UNL1        0.0660
     41 H          -2.4183   -1.4582   -3.9406 H       1  UNL1        0.0660
     42 H          -1.1993   -0.3765   -4.6962 H       1  UNL1        0.0660
     43 H          -5.6581   -1.9755   -1.6298 H       1  UNL1        0.0660
     44 H          -6.1056   -0.2129   -1.8541 H       1  UNL1        0.0660
     45 H          -5.8189   -1.2690   -3.2752 H       1  UNL1        0.0660
     46 H          -5.7630    1.4345    0.4737 H       1  UNL1        0.0660
     47 H          -5.5587    0.6544    2.0959 H       1  UNL1        0.0660
     48 H          -6.9668    0.2250    1.0600 H       1  UNL1        0.0660
     49 H          -4.9021   -1.8774    2.5602 H       1  UNL1        0.0660
     50 H          -3.2539   -2.4987    2.9835 H       1  UNL1        0.0660
     51 H          -4.1902   -1.5176    4.1741 H       1  UNL1        0.0660
@<TRIPOS>BOND
     1     1     2    1
     2     2     3    1
     3     3     4   ar
     4     4     5    1
     5     5     6    1
     6     4     7   ar
     7     7     8   ar
     8     8     9   ar
     9     9    10   ar
    10     8    11    1
    11    11    12   ar
    12    12    13   ar
    13    13    14    2
    14    13    15   ar
    15    15    16   ar
    16    16    17   ar
    17    16    18   ar
    18    18    19    1
    19    19    20    1
    20    18    21   ar
    21    21    22    1
    22    22    23    1
    23    21    24   ar
    24    24    25    1
    25    25    26    1
    26    24    27   ar
    27    27    28    1
    28    28    29    1
    29    10     3   ar
    30    17    11   ar
    31    27    15   ar
    32     1    30    1
    33     1    31    1
    34     1    32    1
    35     6    33    1
    36     6    34    1
    37     6    35    1
    38     7    36    1
    39     9    37    1
    40    10    38    1
    41    12    39    1
    42    20    40    1
    43    20    41    1
    44    20    42    1
    45    23    43    1
    46    23    44    1
    47    23    45    1
    48    26    46    1
    49    26    47    1
    50    26    48    1
    51    29    49    1
    52    29    50    1
    53    29    51    1
