@<TRIPOS>MOLECULE
Tangeretin
 47 49 0 0 0
SMALL
GASTEIGER

@<TRIPOS>ATOM
      1 C           7.8492   -0.4605   -0.8716 C.3     1  UNL1        0.0788
      2 O           6.7206   -1.2935   -0.6272 O.3     1  UNL1       -0.4951
      3 C           5.4311   -0.8176   -0.3468 C.ar    1  UNL1        0.1201
      4 C           4.4117   -1.7493   -0.1264 C.ar    1  UNL1       -0.0193
      5 C           3.1103   -1.3262    0.1568 C.ar    1  UNL1       -0.0476
      6 C           2.8044    0.0424    0.2319 C.ar    1  UNL1        0.0176
      7 C           3.8285    0.9800    0.0020 C.ar    1  UNL1       -0.0476
      8 C           5.1300    0.5552   -0.2821 C.ar    1  UNL1       -0.0193
      9 C           1.4143    0.4719    0.5195 C.ar    1  UNL1        0.1394
     10 C           1.1464    1.6530    1.2187 C.ar    1  UNL1        0.0288
     11 C          -0.1749    2.0184    1.4559 C.ar    1  UNL1        0.1969
     12 O          -0.4022    3.0839    2.0904 O.2     1  UNL1       -0.2869
     13 C          -1.2248    1.1959    0.9885 C.ar    1  UNL1        0.1130
     14 C          -0.8810    0.0096    0.2991 C.ar    1  UNL1        0.1881
     15 O           0.4032   -0.2880    0.1073 O.2     1  UNL1       -0.4507
     16 C          -1.8934   -0.8495   -0.1974 C.ar    1  UNL1        0.2088
     17 O          -1.5941   -2.0318   -0.9012 O.3     1  UNL1       -0.4884
     18 C          -0.3191   -2.6424   -1.0641 C.3     1  UNL1        0.0791
     19 C          -3.2599   -0.5149    0.0083 C.ar    1  UNL1        0.2110
     20 O          -4.3162   -1.3199   -0.4630 O.3     1  UNL1       -0.4883
     21 C          -4.2297   -2.5458   -1.1818 C.3     1  UNL1        0.0791
     22 C          -3.5945    0.6686    0.7152 C.ar    1  UNL1        0.2082
     23 O          -4.9186    1.0479    1.0175 O.3     1  UNL1       -0.4884
     24 C          -6.1151    0.3480    0.6943 C.3     1  UNL1        0.0791
     25 C          -2.5819    1.5253    1.1738 C.ar    1  UNL1        0.1798
     26 O          -2.9318    2.7058    1.8415 O.3     1  UNL1       -0.4905
     27 C          -3.5583    3.7976    1.1763 C.3     1  UNL1        0.0790
     28 H           8.0534    0.1758    0.0154 H       1  UNL1        0.0660
     29 H           7.6688    0.1746   -1.7646 H       1  UNL1        0.0660
     30 H           8.7361   -1.0985   -1.0629 H       1  UNL1        0.0660
     31 H           4.6300   -2.8088   -0.1729 H       1  UNL1        0.0654
     32 H           2.3473   -2.0711    0.3355 H       1  UNL1        0.0626
     33 H           3.6232    2.0423    0.0171 H       1  UNL1        0.0626
     34 H           5.8923    1.3023   -0.4560 H       1  UNL1        0.0654
     35 H           1.9490    2.2746    1.5961 H       1  UNL1        0.0693
     36 H           0.3450   -1.9980   -1.6771 H       1  UNL1        0.0660
     37 H           0.1280   -2.8586   -0.0720 H       1  UNL1        0.0660
     38 H          -0.4505   -3.6043   -1.6002 H       1  UNL1        0.0660
     39 H          -3.7102   -3.3151   -0.5727 H       1  UNL1        0.0660
     40 H          -3.7201   -2.3877   -2.1554 H       1  UNL1        0.0660
     41 H          -5.2567   -2.9097   -1.3888 H       1  UNL1        0.0660
     42 H          -6.2358    0.2787   -0.4071 H       1  UNL1        0.0660
     43 H          -6.1126   -0.6582    1.1637 H       1  UNL1        0.0660
     44 H          -6.9793    0.9137    1.0986 H       1  UNL1        0.0660
     45 H          -4.5617    3.5119    0.8015 H       1  UNL1        0.0660
     46 H          -2.9271    4.1335    0.3265 H       1  UNL1        0.0660
     47 H          -3.6733    4.6387    1.8901 H       1  UNL1        0.0660
@<TRIPOS>BOND
     1     1     2    1
     2     2     3    1
     3     3     4   ar
     4     4     5   ar
     5     5     6   ar
     6     6     7   ar
     7     7     8   ar
     8     6     9    1
     9     9    10   ar
    10    10    11   ar
    11    11    12    2
    12    11    13   ar
    13    13    14   ar
    14    14    15   ar
    15    14    16   ar
    16    16    17    1
    17    17    18    1
    18    16    19   ar
    19    19    20    1
    20    20    21    1
    21    19    22   ar
    22    22    23    1
    23    23    24    1
    24    22    25   ar
    25    25    26    1
    26    26    27    1
    27     8     3   ar
    28    15     9   ar
    29    25    13   ar
    30     1    28    1
    31     1    29    1
    32     1    30    1
    33     4    31    1
    34     5    32    1
    35     7    33    1
    36     8    34    1
    37    10    35    1
    38    18    36    1
    39    18    37    1
    40    18    38    1
    41    21    39    1
    42    21    40    1
    43    21    41    1
    44    24    42    1
    45    24    43    1
    46    24    44    1
    47    27    45    1
    48    27    46    1
    49    27    47    1
