@<TRIPOS>MOLECULE
Luteolin 7-O-diglucuronide
 71 75 0 0 0
SMALL
GASTEIGER

@<TRIPOS>ATOM
      1 C          -6.0109    0.5837   -0.4065 C.3     1  UNL1        0.2342
      2 O          -4.8520   -0.2413   -0.4953 O.3     1  UNL1       -0.4304
      3 C          -3.6381    0.0829    0.1189 C.2     1  UNL1        0.3414
      4 O          -3.5201    1.1468    0.7876 O.2     1  UNL1       -0.2477
      5 C          -2.4891   -0.8757    0.0241 C.3     1  UNL1        0.1872
      6 O          -1.2754   -0.1530   -0.0401 O.3     1  UNL1       -0.3221
      7 C          -0.2035   -0.9853   -0.4650 C.3     1  UNL1        0.2312
      8 O           1.0128   -0.2945   -0.1690 O.3     1  UNL1       -0.4606
      9 C           2.2838   -0.5924   -0.6896 C.ar    1  UNL1        0.1310
     10 C           2.4937   -1.5634   -1.6817 C.ar    1  UNL1        0.0226
     11 C           3.7754   -1.8243   -2.1825 C.ar    1  UNL1        0.1347
     12 O           3.8601   -2.7470   -3.2295 O.3     1  UNL1       -0.5058
     13 C           4.8985   -1.1370   -1.6363 C.ar    1  UNL1        0.1055
     14 C           6.2470   -1.3985   -1.9771 C.ar    1  UNL1        0.1966
     15 O           6.5690   -2.3321   -2.7568 O.2     1  UNL1       -0.2869
     16 C           7.2664   -0.6319   -1.4107 C.ar    1  UNL1        0.0288
     17 C           6.9466    0.3699   -0.4841 C.ar    1  UNL1        0.1393
     18 O           5.6766    0.5568   -0.1398 O.2     1  UNL1       -0.4544
     19 C           4.6684   -0.1401   -0.6535 C.ar    1  UNL1        0.1462
     20 C           3.3748    0.1231   -0.1991 C.ar    1  UNL1        0.0235
     21 C           7.9906    1.2155    0.1481 C.ar    1  UNL1        0.0211
     22 C           7.7531    1.7753    1.4157 C.ar    1  UNL1       -0.0474
     23 C           8.7161    2.5807    2.0288 C.ar    1  UNL1       -0.0159
     24 C           9.9283    2.8485    1.3814 C.ar    1  UNL1        0.1583
     25 O          10.8920    3.6503    1.9903 O.3     1  UNL1       -0.5033
     26 C          10.1729    2.3103    0.1126 C.ar    1  UNL1        0.1589
     27 O          11.3763    2.5881   -0.5337 O.3     1  UNL1       -0.5033
     28 C           9.2073    1.5002   -0.5027 C.ar    1  UNL1       -0.0059
     29 C          -0.1972   -2.3854    0.2339 C.3     1  UNL1        0.1455
     30 O          -0.7166   -3.3612   -0.6341 O.3     1  UNL1       -0.3829
     31 C          -1.0404   -2.3616    1.5253 C.3     1  UNL1        0.1157
     32 O          -0.4066   -1.5487    2.4820 O.3     1  UNL1       -0.3863
     33 C          -2.4676   -1.8136    1.2564 C.3     1  UNL1        0.1202
     34 O          -3.3968   -2.8589    1.1030 O.3     1  UNL1       -0.3860
     35 O          -6.4452    0.6221    0.9425 O.3     1  UNL1       -0.3220
     36 C          -7.5264    1.5268    1.0930 C.3     1  UNL1        0.1869
     37 C          -7.8462    1.6483    2.5536 C.2     1  UNL1        0.3367
     38 O          -8.0751    2.9027    3.1107 O.3     1  UNL1       -0.4788
     39 O          -7.9397    0.6160    3.2712 O.2     1  UNL1       -0.2480
     40 C          -8.7639    1.0281    0.3119 C.3     1  UNL1        0.1202
     41 O          -9.8085    1.9641    0.4026 O.3     1  UNL1       -0.3860
     42 C          -8.3920    0.8367   -1.1701 C.3     1  UNL1        0.1157
     43 O          -9.4567    0.2549   -1.8814 O.3     1  UNL1       -0.3863
     44 C          -7.1093   -0.0086   -1.3037 C.3     1  UNL1        0.1456
     45 O          -6.6694   -0.0093   -2.6371 O.3     1  UNL1       -0.3829
     46 H          -5.7410    1.6046   -0.7681 H       1  UNL1        0.1085
     47 H          -2.6344   -1.4649   -0.9126 H       1  UNL1        0.0742
     48 H          -0.2859   -1.1013   -1.5687 H       1  UNL1        0.1084
     49 H           1.6628   -2.1080   -2.1036 H       1  UNL1        0.0691
     50 H           4.6436   -2.8342   -3.8585 H       1  UNL1        0.2922
     51 H           8.2960   -0.8501   -1.6647 H       1  UNL1        0.0693
     52 H           3.2176    0.8824    0.5575 H       1  UNL1        0.0691
     53 H           6.8255    1.5800    1.9397 H       1  UNL1        0.0626
     54 H           8.5188    2.9965    3.0087 H       1  UNL1        0.0655
     55 H          10.7426    4.0546    2.9075 H       1  UNL1        0.2923
     56 H          11.5836    2.2147   -1.4526 H       1  UNL1        0.2923
     57 H           9.4049    1.1200   -1.4960 H       1  UNL1        0.0662
     58 H           0.8442   -2.6722    0.5127 H       1  UNL1        0.0683
     59 H           0.0069   -3.6018   -1.2689 H       1  UNL1        0.2102
     60 H          -1.1208   -3.3988    1.9294 H       1  UNL1        0.0648
     61 H           0.3595   -2.0681    2.8419 H       1  UNL1        0.2100
     62 H          -2.7790   -1.2365    2.1567 H       1  UNL1        0.0652
     63 H          -3.1116   -3.4086    0.3279 H       1  UNL1        0.2100
     64 H          -7.2364    2.5406    0.7288 H       1  UNL1        0.0742
     65 H          -8.3055    3.0009    4.0922 H       1  UNL1        0.2951
     66 H          -9.0870    0.0427    0.7272 H       1  UNL1        0.0652
     67 H         -10.3071    1.7632    1.2372 H       1  UNL1        0.2100
     68 H          -8.1961    1.8388   -1.6140 H       1  UNL1        0.0648
     69 H          -9.6212   -0.6454   -1.4961 H       1  UNL1        0.2100
     70 H          -7.3084   -1.0534   -0.9651 H       1  UNL1        0.0683
     71 H          -7.2348   -0.6634   -3.1251 H       1  UNL1        0.2102
@<TRIPOS>BOND
     1     1     2    1
     2     2     3    1
     3     3     4    2
     4     3     5    1
     5     5     6    1
     6     6     7    1
     7     7     8    1
     8     8     9    1
     9     9    10   ar
    10    10    11   ar
    11    11    12    1
    12    11    13   ar
    13    13    14   ar
    14    14    15    2
    15    14    16   ar
    16    16    17   ar
    17    17    18   ar
    18    18    19   ar
    19    19    20   ar
    20    17    21    1
    21    21    22   ar
    22    22    23   ar
    23    23    24   ar
    24    24    25    1
    25    24    26   ar
    26    26    27    1
    27    26    28   ar
    28     7    29    1
    29    29    30    1
    30    29    31    1
    31    31    32    1
    32    31    33    1
    33    33    34    1
    34     1    35    1
    35    35    36    1
    36    36    37    1
    37    37    38    1
    38    37    39    2
    39    36    40    1
    40    40    41    1
    41    40    42    1
    42    42    43    1
    43    42    44    1
    44    44    45    1
    45    44     1    1
    46    33     5    1
    47    20     9   ar
    48    28    21   ar
    49    19    13   ar
    50     1    46    1
    51     5    47    1
    52     7    48    1
    53    10    49    1
    54    12    50    1
    55    16    51    1
    56    20    52    1
    57    22    53    1
    58    23    54    1
    59    25    55    1
    60    27    56    1
    61    28    57    1
    62    29    58    1
    63    30    59    1
    64    31    60    1
    65    32    61    1
    66    33    62    1
    67    34    63    1
    68    36    64    1
    69    38    65    1
    70    40    66    1
    71    41    67    1
    72    42    68    1
    73    43    69    1
    74    44    70    1
    75    45    71    1
