@<TRIPOS>MOLECULE
Chrysin
 29 31 0 0 0
SMALL
GASTEIGER

@<TRIPOS>ATOM
      1 O          -4.4775    1.4727   -2.1959 O.3     1  UNL1       -0.5065
      2 C          -3.6498    0.6969   -1.3870 C.ar    1  UNL1        0.1239
      3 C          -4.1987   -0.3394   -0.6349 C.ar    1  UNL1        0.0223
      4 C          -3.4001   -1.1418    0.1903 C.ar    1  UNL1        0.1347
      5 O          -4.0684   -2.1493    0.8947 O.3     1  UNL1       -0.5058
      6 C          -1.9927   -0.8939    0.2636 C.ar    1  UNL1        0.1055
      7 C          -1.0754   -1.6270    1.0549 C.ar    1  UNL1        0.1966
      8 O          -1.4367   -2.5875    1.7814 O.2     1  UNL1       -0.2869
      9 C           0.2798   -1.2910    1.0447 C.ar    1  UNL1        0.0288
     10 C           0.7303   -0.2252    0.2485 C.ar    1  UNL1        0.1392
     11 O          -0.1551    0.4441   -0.4834 O.2     1  UNL1       -0.4544
     12 C          -1.4539    0.1676   -0.5115 C.ar    1  UNL1        0.1462
     13 C          -2.2797    0.9478   -1.3236 C.ar    1  UNL1        0.0231
     14 C           2.1640    0.1964    0.1827 C.ar    1  UNL1        0.0174
     15 C           3.1876   -0.4444    0.9180 C.ar    1  UNL1       -0.0511
     16 C           4.5136   -0.0104    0.8207 C.ar    1  UNL1       -0.0611
     17 C           4.8437    1.0634   -0.0057 C.ar    1  UNL1       -0.0617
     18 C           3.8482    1.7081   -0.7387 C.ar    1  UNL1       -0.0611
     19 C           2.5206    1.2807   -0.6471 C.ar    1  UNL1       -0.0511
     20 H          -4.1099    2.2337   -2.7552 H       1  UNL1        0.2921
     21 H          -5.2643   -0.5262   -0.6912 H       1  UNL1        0.0691
     22 H          -3.6525   -2.8120    1.5277 H       1  UNL1        0.2922
     23 H           0.9508   -1.8705    1.6595 H       1  UNL1        0.0693
     24 H          -1.8516    1.7533   -1.9079 H       1  UNL1        0.0691
     25 H           2.9904   -1.2784    1.5716 H       1  UNL1        0.0625
     26 H           5.2881   -0.5095    1.3889 H       1  UNL1        0.0618
     27 H           5.8712    1.3959   -0.0780 H       1  UNL1        0.0618
     28 H           4.1046    2.5415   -1.3800 H       1  UNL1        0.0618
     29 H           1.7735    1.8044   -1.2302 H       1  UNL1        0.0625
@<TRIPOS>BOND
     1     1     2    1
     2     2     3   ar
     3     3     4   ar
     4     4     5    1
     5     4     6   ar
     6     6     7   ar
     7     7     8    2
     8     7     9   ar
     9     9    10   ar
    10    10    11   ar
    11    11    12   ar
    12    12    13   ar
    13    10    14    1
    14    14    15   ar
    15    15    16   ar
    16    16    17   ar
    17    17    18   ar
    18    18    19   ar
    19    13     2   ar
    20    19    14   ar
    21    12     6   ar
    22     1    20    1
    23     3    21    1
    24     5    22    1
    25     9    23    1
    26    13    24    1
    27    15    25    1
    28    16    26    1
    29    17    27    1
    30    18    28    1
    31    19    29    1
