@<TRIPOS>MOLECULE
Cyanidin
 32 34 0 0 0
SMALL
GASTEIGER

@<TRIPOS>ATOM
      1 O           4.9816   -2.5439    0.2294 O.3     1  UNL1       -0.5063
      2 C           4.1346   -1.4472    0.0860 C.ar    1  UNL1        0.1293
      3 C           4.6785   -0.1639   -0.0005 C.ar    1  UNL1        0.0225
      4 C           3.8546    0.9593   -0.1451 C.ar    1  UNL1        0.1366
      5 O           4.4765    2.2089   -0.2194 O.3     1  UNL1       -0.5057
      6 C           2.4473    0.7879   -0.2075 C.ar    1  UNL1        0.1241
      7 C           1.5465    1.8529   -0.3707 C.ar    1  UNL1        0.0090
      8 C           0.1742    1.6089   -0.4365 C.ar    1  UNL1        0.2238
      9 O          -0.6851    2.6835   -0.6753 O.3     1  UNL1       -0.4995
     10 C          -0.2868    0.2829   -0.2949 C.ar    1  UNL1        0.4043
     11 O           0.5907   -0.7074   -0.1602 O.2     1  UNL1       -0.1997
     12 C           1.9050   -0.5163   -0.1155 C.ar    1  UNL1        0.3708
     13 C           2.7485   -1.6209    0.0292 C.ar    1  UNL1        0.0847
     14 C          -1.7225   -0.0617   -0.2860 C.ar    1  UNL1        0.0865
     15 C          -2.6135    0.5804    0.5905 C.ar    1  UNL1       -0.0003
     16 C          -3.9673    0.2154    0.6192 C.ar    1  UNL1        0.1591
     17 O          -4.8538    0.8609    1.4794 O.3     1  UNL1       -0.5033
     18 C          -4.4325   -0.8069   -0.2179 C.ar    1  UNL1        0.1583
     19 O          -5.7790   -1.1654   -0.1891 O.3     1  UNL1       -0.5033
     20 C          -3.5408   -1.4657   -1.0751 C.ar    1  UNL1       -0.0157
     21 C          -2.1918   -1.1015   -1.1022 C.ar    1  UNL1       -0.0418
     22 H           4.6196   -3.4881    0.2954 H       1  UNL1        0.2921
     23 H           5.7531   -0.0368    0.0462 H       1  UNL1        0.0691
     24 H           3.9847    3.0862   -0.3062 H       1  UNL1        0.2922
     25 H           1.8784    2.8740   -0.4751 H       1  UNL1        0.0667
     26 H          -1.6721    2.5687   -0.8644 H       1  UNL1        0.2925
     27 H           2.3246   -2.6153    0.0984 H       1  UNL1        0.0749
     28 H          -2.2554    1.3558    1.2569 H       1  UNL1        0.0664
     29 H          -4.5473    1.6035    2.0971 H       1  UNL1        0.2923
     30 H          -6.1441   -1.9017   -0.7819 H       1  UNL1        0.2923
     31 H          -3.8917   -2.2622   -1.7189 H       1  UNL1        0.0655
     32 H          -1.5148   -1.6242   -1.7671 H       1  UNL1        0.0628
@<TRIPOS>UNITY_ATOM_ATTR
11 1
charge 1
@<TRIPOS>BOND
     1     1     2    1
     2     2     3   ar
     3     3     4   ar
     4     4     5    1
     5     4     6   ar
     6     6     7   ar
     7     7     8   ar
     8     8     9    1
     9     8    10   ar
    10    10    11   ar
    11    11    12   ar
    12    12    13   ar
    13    10    14    1
    14    14    15   ar
    15    15    16   ar
    16    16    17    1
    17    16    18   ar
    18    18    19    1
    19    18    20   ar
    20    20    21   ar
    21    13     2   ar
    22    21    14   ar
    23    12     6   ar
    24     1    22    1
    25     3    23    1
    26     5    24    1
    27     7    25    1
    28     9    26    1
    29    13    27    1
    30    15    28    1
    31    17    29    1
    32    19    30    1
    33    20    31    1
    34    21    32    1
