@<TRIPOS>MOLECULE
Luteolin 7-O-rutinoside
 72 76 0 0 0
SMALL
GASTEIGER

@<TRIPOS>ATOM
      1 C           1.7895   -1.6435    0.5335 C.3     1  UNL1       -0.0361
      2 C           2.6035   -1.5568   -0.7581 C.3     1  UNL1        0.0873
      3 O           1.7176   -1.3106   -1.8327 O.3     1  UNL1       -0.3431
      4 C           2.4189   -0.8758   -2.9961 C.3     1  UNL1        0.1879
      5 O           2.7934    0.4894   -2.8926 O.3     1  UNL1       -0.3461
      6 C           1.6581    1.3055   -2.6779 C.3     1  UNL1        0.0796
      7 C           2.0771    2.7903   -2.6918 C.3     1  UNL1        0.1144
      8 O           0.9686    3.6751   -2.8419 O.3     1  UNL1       -0.3313
      9 C           0.1962    3.8528   -1.6612 C.3     1  UNL1        0.2308
     10 O          -0.4763    2.6381   -1.3187 O.3     1  UNL1       -0.4606
     11 C          -1.4647    2.4779   -0.3369 C.ar    1  UNL1        0.1310
     12 C          -2.1824    3.5542    0.2062 C.ar    1  UNL1        0.0226
     13 C          -3.1617    3.3488    1.1870 C.ar    1  UNL1        0.1347
     14 O          -3.8792    4.4760    1.5984 O.3     1  UNL1       -0.5058
     15 C          -3.3919    2.0334    1.6881 C.ar    1  UNL1        0.1055
     16 C          -4.2605    1.7188    2.7605 C.ar    1  UNL1        0.1966
     17 O          -4.8646    2.6094    3.4124 O.2     1  UNL1       -0.2869
     18 C          -4.4337    0.3880    3.1455 C.ar    1  UNL1        0.0288
     19 C          -3.7206   -0.6225    2.4855 C.ar    1  UNL1        0.1393
     20 O          -2.8750   -0.2941    1.5150 O.2     1  UNL1       -0.4544
     21 C          -2.6780    0.9543    1.1064 C.ar    1  UNL1        0.1462
     22 C          -1.7412    1.1845    0.0992 C.ar    1  UNL1        0.0235
     23 C          -3.8573   -2.0537    2.8564 C.ar    1  UNL1        0.0211
     24 C          -2.7927   -2.9379    2.6033 C.ar    1  UNL1       -0.0059
     25 C          -2.8964   -4.2964    2.9344 C.ar    1  UNL1        0.1589
     26 O          -1.8343   -5.1651    2.6888 O.3     1  UNL1       -0.5033
     27 C          -4.0722   -4.7855    3.5148 C.ar    1  UNL1        0.1583
     28 O          -4.1717   -6.1364    3.8431 O.3     1  UNL1       -0.5033
     29 C          -5.1420   -3.9155    3.7586 C.ar    1  UNL1       -0.0159
     30 C          -5.0393   -2.5611    3.4295 C.ar    1  UNL1       -0.0474
     31 C           1.0422    4.3973   -0.4906 C.3     1  UNL1        0.1454
     32 O           1.4528    5.7067   -0.7916 O.3     1  UNL1       -0.3829
     33 C           2.2588    3.4976   -0.2196 C.3     1  UNL1        0.1152
     34 O           1.8295    2.3099    0.3973 O.3     1  UNL1       -0.3864
     35 C           3.0233    3.1829   -1.5216 C.3     1  UNL1        0.1120
     36 O           3.8490    4.2664   -1.8785 O.3     1  UNL1       -0.3865
     37 C           3.6887   -1.7327   -3.2826 C.3     1  UNL1        0.1341
     38 O           3.8931   -1.9151   -4.6624 O.3     1  UNL1       -0.3841
     39 C           3.6565   -3.0823   -2.5287 C.3     1  UNL1        0.1140
     40 O           2.7045   -3.9604   -3.0832 O.3     1  UNL1       -0.3864
     41 C           3.4018   -2.8651   -1.0128 C.3     1  UNL1        0.1095
     42 O           4.6363   -2.7990   -0.3439 O.3     1  UNL1       -0.3866
     43 H           1.2426   -0.6900    0.6952 H       1  UNL1        0.0255
     44 H           2.4574   -1.8155    1.4036 H       1  UNL1        0.0255
     45 H           1.0481   -2.4689    0.4726 H       1  UNL1        0.0255
     46 H           3.3104   -0.7013   -0.6349 H       1  UNL1        0.0621
     47 H           1.7249   -0.9998   -3.8582 H       1  UNL1        0.0937
     48 H           0.9037    1.1499   -3.4827 H       1  UNL1        0.0587
     49 H           1.2070    1.0519   -1.6995 H       1  UNL1        0.0587
     50 H           2.6775    2.9038   -3.6218 H       1  UNL1        0.0647
     51 H          -0.5750    4.6132   -1.9069 H       1  UNL1        0.1084
     52 H          -2.0117    4.5613   -0.1479 H       1  UNL1        0.0691
     53 H          -4.7658    4.4503    2.0785 H       1  UNL1        0.2922
     54 H          -5.0854    0.1590    3.9790 H       1  UNL1        0.0693
     55 H          -1.1969    0.3502   -0.3275 H       1  UNL1        0.0691
     56 H          -1.8745   -2.5730    2.1588 H       1  UNL1        0.0662
     57 H          -0.9704   -4.8414    2.2694 H       1  UNL1        0.2923
     58 H          -5.0105   -6.5194    4.2633 H       1  UNL1        0.2923
     59 H          -6.0582   -4.2898    4.1975 H       1  UNL1        0.0655
     60 H          -5.8956   -1.9237    3.6030 H       1  UNL1        0.0626
     61 H           0.4134    4.4260    0.4283 H       1  UNL1        0.0683
     62 H           1.7412    6.1237    0.0622 H       1  UNL1        0.2102
     63 H           2.9417    4.0336    0.4812 H       1  UNL1        0.0648
     64 H           2.6313    1.8855    0.8009 H       1  UNL1        0.2100
     65 H           3.7080    2.3307   -1.3183 H       1  UNL1        0.0647
     66 H           3.2858    4.9621   -2.3056 H       1  UNL1        0.2100
     67 H           4.5728   -1.1783   -2.8950 H       1  UNL1        0.0671
     68 H           3.1146   -2.4134   -5.0234 H       1  UNL1        0.2101
     69 H           4.6498   -3.5665   -2.6578 H       1  UNL1        0.0648
     70 H           1.8024   -3.5788   -2.9290 H       1  UNL1        0.2100
     71 H           2.8277   -3.7458   -0.6364 H       1  UNL1        0.0646
     72 H           4.4601   -3.0047    0.6110 H       1  UNL1        0.2100
@<TRIPOS>BOND
     1     1     2    1
     2     2     3    1
     3     3     4    1
     4     4     5    1
     5     5     6    1
     6     6     7    1
     7     7     8    1
     8     8     9    1
     9     9    10    1
    10    10    11    1
    11    11    12   ar
    12    12    13   ar
    13    13    14    1
    14    13    15   ar
    15    15    16   ar
    16    16    17    2
    17    16    18   ar
    18    18    19   ar
    19    19    20   ar
    20    20    21   ar
    21    21    22   ar
    22    19    23    1
    23    23    24   ar
    24    24    25   ar
    25    25    26    1
    26    25    27   ar
    27    27    28    1
    28    27    29   ar
    29    29    30   ar
    30     9    31    1
    31    31    32    1
    32    31    33    1
    33    33    34    1
    34    33    35    1
    35    35    36    1
    36     4    37    1
    37    37    38    1
    38    37    39    1
    39    39    40    1
    40    39    41    1
    41    41    42    1
    42    41     2    1
    43    35     7    1
    44    22    11   ar
    45    30    23   ar
    46    21    15   ar
    47     1    43    1
    48     1    44    1
    49     1    45    1
    50     2    46    1
    51     4    47    1
    52     6    48    1
    53     6    49    1
    54     7    50    1
    55     9    51    1
    56    12    52    1
    57    14    53    1
    58    18    54    1
    59    22    55    1
    60    24    56    1
    61    26    57    1
    62    28    58    1
    63    29    59    1
    64    30    60    1
    65    31    61    1
    66    32    62    1
    67    33    63    1
    68    34    64    1
    69    35    65    1
    70    36    66    1
    71    37    67    1
    72    38    68    1
    73    39    69    1
    74    40    70    1
    75    41    71    1
    76    42    72    1
