@<TRIPOS>MOLECULE
Tetramethylscutellarein
 43 45 0 0 0
SMALL
GASTEIGER

@<TRIPOS>ATOM
      1 C           7.5042    1.2924   -1.1131 C.3     1  UNL1        0.0788
      2 O           6.9075    0.4110   -0.1672 O.3     1  UNL1       -0.4951
      3 C           5.5274    0.1859   -0.0556 C.ar    1  UNL1        0.1201
      4 C           5.0762   -0.7075    0.9211 C.ar    1  UNL1       -0.0193
      5 C           3.7113   -0.9681    1.0726 C.ar    1  UNL1       -0.0476
      6 C           2.7674   -0.3402    0.2378 C.ar    1  UNL1        0.0176
      7 C           3.2227    0.5677   -0.7339 C.ar    1  UNL1       -0.0476
      8 C           4.5883    0.8261   -0.8843 C.ar    1  UNL1       -0.0193
      9 C           1.3104   -0.5881    0.3807 C.ar    1  UNL1        0.1392
     10 C           0.8105   -1.7978    0.8883 C.ar    1  UNL1        0.0288
     11 C          -0.5686   -1.9774    1.0001 C.ar    1  UNL1        0.1967
     12 O          -1.0057   -3.0675    1.4583 O.2     1  UNL1       -0.2869
     13 C          -1.4413   -0.9431    0.6015 C.ar    1  UNL1        0.1093
     14 C          -2.8509   -1.0506    0.6678 C.ar    1  UNL1        0.1795
     15 O          -3.4403   -2.2500    1.0806 O.3     1  UNL1       -0.4905
     16 C          -4.2226   -3.0484    0.1989 C.3     1  UNL1        0.0790
     17 C          -3.6554    0.0505    0.2953 C.ar    1  UNL1        0.2045
     18 O          -5.0470    0.0297    0.4484 O.3     1  UNL1       -0.4885
     19 C          -5.6821   -0.2106    1.7006 C.3     1  UNL1        0.0791
     20 C          -3.0681    1.2062   -0.2380 C.ar    1  UNL1        0.1687
     21 O          -3.9095    2.2563   -0.6394 O.3     1  UNL1       -0.4912
     22 C          -3.4565    3.4889   -1.1898 C.3     1  UNL1        0.0790
     23 C          -1.6700    1.2917   -0.3399 C.ar    1  UNL1        0.0270
     24 C          -0.8612    0.2388    0.0888 C.ar    1  UNL1        0.1465
     25 O           0.4596    0.3623    0.0012 O.2     1  UNL1       -0.4544
     26 H           8.6052    1.2763   -0.9794 H       1  UNL1        0.0660
     27 H           7.1414    2.3293   -0.9506 H       1  UNL1        0.0660
     28 H           7.2665    0.9615   -2.1462 H       1  UNL1        0.0660
     29 H           5.7885   -1.1983    1.5724 H       1  UNL1        0.0654
     30 H           3.4016   -1.6415    1.8602 H       1  UNL1        0.0626
     31 H           2.5216    1.0712   -1.3882 H       1  UNL1        0.0626
     32 H           4.9023    1.5249   -1.6476 H       1  UNL1        0.0654
     33 H           1.4738   -2.6052    1.1706 H       1  UNL1        0.0693
     34 H          -5.1046   -2.4853   -0.1683 H       1  UNL1        0.0660
     35 H          -3.6041   -3.3690   -0.6658 H       1  UNL1        0.0660
     36 H          -4.5749   -3.9494    0.7413 H       1  UNL1        0.0660
     37 H          -5.2977    0.5006    2.4620 H       1  UNL1        0.0660
     38 H          -5.5123   -1.2495    2.0447 H       1  UNL1        0.0660
     39 H          -6.7743   -0.0547    1.5870 H       1  UNL1        0.0660
     40 H          -4.3338    4.1282   -1.4176 H       1  UNL1        0.0660
     41 H          -2.8108    4.0194   -0.4584 H       1  UNL1        0.0660
     42 H          -2.8973    3.3042   -2.1314 H       1  UNL1        0.0660
     43 H          -1.1971    2.1792   -0.7387 H       1  UNL1        0.0692
@<TRIPOS>BOND
     1     1     2    1
     2     2     3    1
     3     3     4   ar
     4     4     5   ar
     5     5     6   ar
     6     6     7   ar
     7     7     8   ar
     8     6     9    1
     9     9    10   ar
    10    10    11   ar
    11    11    12    2
    12    11    13   ar
    13    13    14   ar
    14    14    15    1
    15    15    16    1
    16    14    17   ar
    17    17    18    1
    18    18    19    1
    19    17    20   ar
    20    20    21    1
    21    21    22    1
    22    20    23   ar
    23    23    24   ar
    24    24    25   ar
    25     8     3   ar
    26    25     9   ar
    27    24    13   ar
    28     1    26    1
    29     1    27    1
    30     1    28    1
    31     4    29    1
    32     5    30    1
    33     7    31    1
    34     8    32    1
    35    10    33    1
    36    16    34    1
    37    16    35    1
    38    16    36    1
    39    19    37    1
    40    19    38    1
    41    19    39    1
    42    22    40    1
    43    22    41    1
    44    22    42    1
    45    23    43    1
