@<TRIPOS>MOLECULE
Luteolin 7-O-glucoside
 52 55 0 0 0
SMALL
GASTEIGER

@<TRIPOS>ATOM
      1 O           2.0102   -0.1582   -2.0963 O.3     1  UNL1       -0.3924
      2 C           3.3209    0.0598   -1.6518 C.3     1  UNL1        0.0731
      3 C           3.4154    1.4349   -0.9632 C.3     1  UNL1        0.1140
      4 O           2.3952    1.6448    0.0095 O.3     1  UNL1       -0.3313
      5 C           2.6316    1.0102    1.2609 C.3     1  UNL1        0.2308
      6 O           2.5174   -0.4110    1.1640 O.3     1  UNL1       -0.4606
      7 C           1.3415   -1.1080    0.8439 C.ar    1  UNL1        0.1310
      8 C           1.4072   -2.5008    0.7501 C.ar    1  UNL1        0.0226
      9 C           0.2748   -3.2575    0.4171 C.ar    1  UNL1        0.1347
     10 O           0.3815   -4.6461    0.3297 O.3     1  UNL1       -0.5058
     11 C          -0.9561   -2.6063    0.1738 C.ar    1  UNL1        0.1055
     12 C          -2.1369   -3.2929   -0.1731 C.ar    1  UNL1        0.1966
     13 O          -2.1567   -4.5480   -0.2911 O.2     1  UNL1       -0.2869
     14 C          -3.3113   -2.5735   -0.3973 C.ar    1  UNL1        0.0288
     15 C          -3.2997   -1.1748   -0.2702 C.ar    1  UNL1        0.1393
     16 O          -2.1651   -0.5565    0.0498 O.2     1  UNL1       -0.4544
     17 C          -1.0218   -1.1970    0.2729 C.ar    1  UNL1        0.1462
     18 C           0.1175   -0.4594    0.6063 C.ar    1  UNL1        0.0235
     19 C          -4.5178   -0.3569   -0.4987 C.ar    1  UNL1        0.0211
     20 C          -4.3864    0.9785   -0.9157 C.ar    1  UNL1       -0.0059
     21 C          -5.5116    1.7836   -1.1332 C.ar    1  UNL1        0.1589
     22 O          -5.3010    3.0979   -1.5556 O.3     1  UNL1       -0.5033
     23 C          -6.8030    1.2476   -0.9209 C.ar    1  UNL1        0.1583
     24 O          -7.9702    1.9881   -1.1182 O.3     1  UNL1       -0.5033
     25 C          -6.9336   -0.0772   -0.4925 C.ar    1  UNL1       -0.0159
     26 C          -5.8069   -0.8733   -0.2787 C.ar    1  UNL1       -0.0474
     27 C           3.9827    1.4034    1.8865 C.3     1  UNL1        0.1454
     28 O           3.9680    2.7630    2.2425 O.3     1  UNL1       -0.3829
     29 C           5.1364    1.1432    0.9127 C.3     1  UNL1        0.1152
     30 O           5.3461   -0.2400    0.7852 O.3     1  UNL1       -0.3864
     31 C           4.8382    1.7801   -0.4588 C.3     1  UNL1        0.1120
     32 O           4.9581    3.1780   -0.3685 O.3     1  UNL1       -0.3865
     33 H           1.9985   -1.0701   -2.4879 H       1  UNL1        0.2095
     34 H           3.6347   -0.7609   -0.9759 H       1  UNL1        0.0584
     35 H           4.0069    0.0467   -2.5283 H       1  UNL1        0.0584
     36 H           3.2048    2.1627   -1.7785 H       1  UNL1        0.0647
     37 H           1.8479    1.3604    1.9674 H       1  UNL1        0.1084
     38 H           2.3516   -2.9988    0.9317 H       1  UNL1        0.0691
     39 H           1.2580   -5.1251    0.5010 H       1  UNL1        0.2922
     40 H          -4.2082   -3.1031   -0.6920 H       1  UNL1        0.0693
     41 H           0.0369    0.6169    0.6700 H       1  UNL1        0.0691
     42 H          -3.4031    1.4004   -1.0866 H       1  UNL1        0.0662
     43 H          -6.0428    3.7582   -1.7379 H       1  UNL1        0.2923
     44 H          -7.9836    2.9495   -1.4269 H       1  UNL1        0.2923
     45 H          -7.9186   -0.4916   -0.3171 H       1  UNL1        0.0655
     46 H          -5.9517   -1.8825    0.0823 H       1  UNL1        0.0626
     47 H           4.1532    0.7872    2.8012 H       1  UNL1        0.0683
     48 H           3.4428    2.8367    3.0819 H       1  UNL1        0.2102
     49 H           6.0588    1.6041    1.3392 H       1  UNL1        0.0648
     50 H           6.2393   -0.3590    0.3683 H       1  UNL1        0.2100
     51 H           5.5809    1.4073   -1.2035 H       1  UNL1        0.0647
     52 H           5.9291    3.3852   -0.3453 H       1  UNL1        0.2100
@<TRIPOS>BOND
     1     1     2    1
     2     2     3    1
     3     3     4    1
     4     4     5    1
     5     5     6    1
     6     6     7    1
     7     7     8   ar
     8     8     9   ar
     9     9    10    1
    10     9    11   ar
    11    11    12   ar
    12    12    13    2
    13    12    14   ar
    14    14    15   ar
    15    15    16   ar
    16    16    17   ar
    17    17    18   ar
    18    15    19    1
    19    19    20   ar
    20    20    21   ar
    21    21    22    1
    22    21    23   ar
    23    23    24    1
    24    23    25   ar
    25    25    26   ar
    26     5    27    1
    27    27    28    1
    28    27    29    1
    29    29    30    1
    30    29    31    1
    31    31    32    1
    32    31     3    1
    33    18     7   ar
    34    26    19   ar
    35    17    11   ar
    36     1    33    1
    37     2    34    1
    38     2    35    1
    39     3    36    1
    40     5    37    1
    41     8    38    1
    42    10    39    1
    43    14    40    1
    44    18    41    1
    45    20    42    1
    46    22    43    1
    47    24    44    1
    48    25    45    1
    49    26    46    1
    50    27    47    1
    51    28    48    1
    52    29    49    1
    53    30    50    1
    54    31    51    1
    55    32    52    1
