@<TRIPOS>MOLECULE
Apigenin 7-O-glucoside
 51 54 0 0 0
SMALL
GASTEIGER

@<TRIPOS>ATOM
      1 C          -4.4201    0.7370   -0.3131 C.3     1  UNL1        0.1140
      2 C          -4.0721    2.1802   -0.7107 C.3     1  UNL1        0.0731
      3 O          -4.3591    2.3995   -2.0657 O.3     1  UNL1       -0.3924
      4 O          -3.7297   -0.1430   -1.1990 O.3     1  UNL1       -0.3313
      5 C          -3.3349   -1.3898   -0.6368 C.3     1  UNL1        0.2308
      6 O          -2.0378   -1.2741   -0.0478 O.3     1  UNL1       -0.4606
      7 C          -0.8700   -0.9007   -0.7306 C.ar    1  UNL1        0.1310
      8 C          -0.8369   -0.6985   -2.1222 C.ar    1  UNL1        0.0226
      9 C           0.3515   -0.3182   -2.7633 C.ar    1  UNL1        0.1347
     10 O           0.3506   -0.1226   -4.1451 O.3     1  UNL1       -0.5058
     11 C           1.5317   -0.1388   -2.0057 C.ar    1  UNL1        0.1055
     12 C           2.7622    0.2480   -2.5737 C.ar    1  UNL1        0.1966
     13 O           2.8758    0.4646   -3.8105 O.2     1  UNL1       -0.2869
     14 C           3.8812    0.4010   -1.7542 C.ar    1  UNL1        0.0288
     15 C           3.7651    0.1635   -0.3747 C.ar    1  UNL1        0.1392
     16 O           2.5859   -0.1910    0.1309 O.2     1  UNL1       -0.4544
     17 C           1.4923   -0.3494   -0.6080 C.ar    1  UNL1        0.1462
     18 C           0.2993   -0.7272    0.0132 C.ar    1  UNL1        0.0235
     19 C           4.9206    0.3118    0.5459 C.ar    1  UNL1        0.0176
     20 C           4.6919    0.6179    1.8999 C.ar    1  UNL1       -0.0476
     21 C           5.7621    0.7546    2.7888 C.ar    1  UNL1       -0.0195
     22 C           7.0766    0.5777    2.3405 C.ar    1  UNL1        0.1169
     23 O           8.1508    0.7115    3.2172 O.3     1  UNL1       -0.5068
     24 C           7.3142    0.2602    1.0006 C.ar    1  UNL1       -0.0195
     25 C           6.2467    0.1235    0.1078 C.ar    1  UNL1       -0.0476
     26 C          -4.3332   -1.9335    0.4045 C.3     1  UNL1        0.1454
     27 O          -5.5873   -2.1273   -0.2002 O.3     1  UNL1       -0.3829
     28 C          -4.4793   -0.9504    1.5903 C.3     1  UNL1        0.1152
     29 O          -3.6486   -1.3464    2.6525 O.3     1  UNL1       -0.3864
     30 C          -4.1157    0.4969    1.1881 C.3     1  UNL1        0.1120
     31 O          -4.8469    1.4024    1.9756 O.3     1  UNL1       -0.3865
     32 H          -5.5134    0.6004   -0.4716 H       1  UNL1        0.0647
     33 H          -4.6325    2.9106   -0.0838 H       1  UNL1        0.0584
     34 H          -2.9868    2.3555   -0.5491 H       1  UNL1        0.0584
     35 H          -5.3457    2.4842   -2.1371 H       1  UNL1        0.2095
     36 H          -3.2775   -2.1357   -1.4591 H       1  UNL1        0.1084
     37 H          -1.7273   -0.8365   -2.7194 H       1  UNL1        0.0691
     38 H          -0.4874   -0.2469   -4.7011 H       1  UNL1        0.2922
     39 H           4.8165    0.7264   -2.1913 H       1  UNL1        0.0693
     40 H           0.2790   -0.8836    1.0849 H       1  UNL1        0.0691
     41 H           3.6843    0.7637    2.2696 H       1  UNL1        0.0626
     42 H           5.5681    0.9978    3.8258 H       1  UNL1        0.0654
     43 H           8.0112    0.9400    4.1946 H       1  UNL1        0.2921
     44 H           8.3282    0.1117    0.6515 H       1  UNL1        0.0654
     45 H           6.4646   -0.1535   -0.9146 H       1  UNL1        0.0626
     46 H          -3.9590   -2.9138    0.7844 H       1  UNL1        0.0683
     47 H          -5.5160   -2.9455   -0.7582 H       1  UNL1        0.2102
     48 H          -5.5416   -0.9639    1.9351 H       1  UNL1        0.0648
     49 H          -4.0942   -2.1148    3.0965 H       1  UNL1        0.2100
     50 H          -3.0242    0.6693    1.3465 H       1  UNL1        0.0647
     51 H          -4.4332    1.3953    2.8782 H       1  UNL1        0.2100
@<TRIPOS>BOND
     1     1     2    1
     2     2     3    1
     3     1     4    1
     4     4     5    1
     5     5     6    1
     6     6     7    1
     7     7     8   ar
     8     8     9   ar
     9     9    10    1
    10     9    11   ar
    11    11    12   ar
    12    12    13    2
    13    12    14   ar
    14    14    15   ar
    15    15    16   ar
    16    16    17   ar
    17    17    18   ar
    18    15    19    1
    19    19    20   ar
    20    20    21   ar
    21    21    22   ar
    22    22    23    1
    23    22    24   ar
    24    24    25   ar
    25     5    26    1
    26    26    27    1
    27    26    28    1
    28    28    29    1
    29    28    30    1
    30    30    31    1
    31    30     1    1
    32    18     7   ar
    33    25    19   ar
    34    17    11   ar
    35     1    32    1
    36     2    33    1
    37     2    34    1
    38     3    35    1
    39     5    36    1
    40     8    37    1
    41    10    38    1
    42    14    39    1
    43    18    40    1
    44    20    41    1
    45    21    42    1
    46    23    43    1
    47    24    44    1
    48    25    45    1
    49    26    46    1
    50    27    47    1
    51    28    48    1
    52    29    49    1
    53    30    50    1
    54    31    51    1
