@<TRIPOS>MOLECULE
Apigenin 6,8-di-C-glucoside
 72 76 0 0 0
SMALL
GASTEIGER

@<TRIPOS>ATOM
      1 C           3.3991   -0.3979   -0.1089 C.3     1  UNL1        0.1193
      2 O           3.9921   -0.9723   -1.2665 O.3     1  UNL1       -0.3609
      3 C           5.4044   -1.1775   -1.1975 C.3     1  UNL1        0.1108
      4 C           5.7013   -2.6849   -1.2869 C.3     1  UNL1        0.0729
      5 O           5.2663   -3.1968   -2.5182 O.3     1  UNL1       -0.3924
      6 C           6.1308   -0.5238    0.0118 C.3     1  UNL1        0.1117
      7 O           6.1558    0.8701   -0.1730 O.3     1  UNL1       -0.3865
      8 C           5.4453   -0.8705    1.3569 C.3     1  UNL1        0.1121
      9 O           5.9996   -2.0458    1.8934 O.3     1  UNL1       -0.3865
     10 C           3.9178   -1.0614    1.1940 C.3     1  UNL1        0.1139
     11 O           3.2312   -0.5863    2.3264 O.3     1  UNL1       -0.3862
     12 C           1.8781   -0.5298   -0.2136 C.ar    1  UNL1        0.0677
     13 C           1.0100    0.5389    0.1415 C.ar    1  UNL1        0.1353
     14 O           1.4871    1.7427    0.6776 O.3     1  UNL1       -0.5058
     15 C          -0.3862    0.4043   -0.0152 C.ar    1  UNL1        0.0686
     16 C          -0.9237   -0.8119   -0.4760 C.ar    1  UNL1        0.1520
     17 O          -2.2450   -0.9353   -0.5837 O.2     1  UNL1       -0.4540
     18 C          -2.8563   -2.0227   -1.0373 C.ar    1  UNL1        0.1392
     19 C          -2.0861   -3.1049   -1.4759 C.ar    1  UNL1        0.0288
     20 C          -0.6966   -3.0347   -1.3910 C.ar    1  UNL1        0.1966
     21 O          -0.0249   -3.9850   -1.8714 O.2     1  UNL1       -0.2869
     22 C          -0.0796   -1.8926   -0.8221 C.ar    1  UNL1        0.1062
     23 C           1.3206   -1.7670   -0.6218 C.ar    1  UNL1        0.1404
     24 O           2.1866   -2.8553   -0.7770 O.3     1  UNL1       -0.5054
     25 C          -4.3405   -2.0355   -1.0898 C.ar    1  UNL1        0.0176
     26 C          -5.0749   -3.2377   -1.0489 C.ar    1  UNL1       -0.0476
     27 C          -6.4725   -3.2160   -1.0862 C.ar    1  UNL1       -0.0195
     28 C          -7.1574   -1.9968   -1.1560 C.ar    1  UNL1        0.1169
     29 O          -8.5495   -1.9646   -1.1943 O.3     1  UNL1       -0.5068
     30 C          -6.4381   -0.7994   -1.1838 C.ar    1  UNL1       -0.0195
     31 C          -5.0409   -0.8162   -1.1462 C.ar    1  UNL1       -0.0476
     32 C          -1.3197    1.5488    0.3723 C.3     1  UNL1        0.1193
     33 O          -0.8065    2.7767   -0.1149 O.3     1  UNL1       -0.3609
     34 C          -1.7917    3.8000   -0.0496 C.3     1  UNL1        0.1108
     35 C          -1.1223    5.1358   -0.4034 C.3     1  UNL1        0.0729
     36 O          -0.5065    5.0602   -1.6611 O.3     1  UNL1       -0.3924
     37 C          -2.4853    3.8832    1.3508 C.3     1  UNL1        0.1117
     38 O          -3.7986    3.3901    1.2665 O.3     1  UNL1       -0.3865
     39 C          -1.7097    3.0594    2.3970 C.3     1  UNL1        0.1121
     40 O          -0.4558    3.6501    2.6329 O.3     1  UNL1       -0.3865
     41 C          -1.5014    1.6048    1.9121 C.3     1  UNL1        0.1139
     42 O          -2.6062    0.8123    2.2690 O.3     1  UNL1       -0.3862
     43 H           3.6785    0.6704   -0.1198 H       1  UNL1        0.0676
     44 H           5.8434   -0.7200   -2.1117 H       1  UNL1        0.0646
     45 H           5.2193   -3.2339   -0.4473 H       1  UNL1        0.0584
     46 H           6.7962   -2.8571   -1.2145 H       1  UNL1        0.0584
     47 H           4.2914   -3.3613   -2.4335 H       1  UNL1        0.2095
     48 H           7.1858   -0.8883    0.0291 H       1  UNL1        0.0647
     49 H           6.8677    1.2295    0.4189 H       1  UNL1        0.2100
     50 H           5.6335   -0.0324    2.0695 H       1  UNL1        0.0647
     51 H           6.8882   -1.8043    2.2652 H       1  UNL1        0.2100
     52 H           3.7086   -2.1500    1.1227 H       1  UNL1        0.0649
     53 H           3.4113    0.3861    2.4026 H       1  UNL1        0.2100
     54 H           2.4356    1.9249    0.9665 H       1  UNL1        0.2922
     55 H          -2.5469   -3.9774   -1.9210 H       1  UNL1        0.0693
     56 H           1.9104   -3.8201   -0.6641 H       1  UNL1        0.2922
     57 H          -4.5789   -4.1947   -0.9627 H       1  UNL1        0.0626
     58 H          -7.0224   -4.1480   -1.0529 H       1  UNL1        0.0654
     59 H          -9.0996   -2.8155   -1.1745 H       1  UNL1        0.2921
     60 H          -6.9625    0.1464   -1.2341 H       1  UNL1        0.0654
     61 H          -4.5078    0.1264   -1.1719 H       1  UNL1        0.0626
     62 H          -2.3157    1.3753   -0.0995 H       1  UNL1        0.0676
     63 H          -2.5598    3.6104   -0.8349 H       1  UNL1        0.0646
     64 H          -1.8733    5.9590   -0.3958 H       1  UNL1        0.0584
     65 H          -0.3461    5.3743    0.3548 H       1  UNL1        0.0584
     66 H          -1.2325    5.1093   -2.3366 H       1  UNL1        0.2095
     67 H          -2.5286    4.9375    1.7149 H       1  UNL1        0.0647
     68 H          -4.3361    4.0851    0.8039 H       1  UNL1        0.2100
     69 H          -2.2863    3.0446    3.3523 H       1  UNL1        0.0647
     70 H          -0.6160    4.4564    3.1898 H       1  UNL1        0.2100
     71 H          -0.5895    1.2015    2.4153 H       1  UNL1        0.0649
     72 H          -2.5181    0.6113    3.2374 H       1  UNL1        0.2100
@<TRIPOS>BOND
     1     1     2    1
     2     2     3    1
     3     3     4    1
     4     4     5    1
     5     3     6    1
     6     6     7    1
     7     6     8    1
     8     8     9    1
     9     8    10    1
    10    10    11    1
    11     1    12    1
    12    12    13   ar
    13    13    14    1
    14    13    15   ar
    15    15    16   ar
    16    16    17   ar
    17    17    18   ar
    18    18    19   ar
    19    19    20   ar
    20    20    21    2
    21    20    22   ar
    22    22    23   ar
    23    23    24    1
    24    18    25    1
    25    25    26   ar
    26    26    27   ar
    27    27    28   ar
    28    28    29    1
    29    28    30   ar
    30    30    31   ar
    31    15    32    1
    32    32    33    1
    33    33    34    1
    34    34    35    1
    35    35    36    1
    36    34    37    1
    37    37    38    1
    38    37    39    1
    39    39    40    1
    40    39    41    1
    41    41    42    1
    42    10     1    1
    43    23    12   ar
    44    31    25   ar
    45    41    32    1
    46    22    16   ar
    47     1    43    1
    48     3    44    1
    49     4    45    1
    50     4    46    1
    51     5    47    1
    52     6    48    1
    53     7    49    1
    54     8    50    1
    55     9    51    1
    56    10    52    1
    57    11    53    1
    58    14    54    1
    59    19    55    1
    60    24    56    1
    61    26    57    1
    62    27    58    1
    63    29    59    1
    64    30    60    1
    65    31    61    1
    66    32    62    1
    67    34    63    1
    68    35    64    1
    69    35    65    1
    70    36    66    1
    71    37    67    1
    72    38    68    1
    73    39    69    1
    74    40    70    1
    75    41    71    1
    76    42    72    1
