@<TRIPOS>MOLECULE
Luteolin 7-O-glucuronide
 51 54 0 0 0
SMALL
GASTEIGER

@<TRIPOS>ATOM
      1 O          -5.5946    0.2697   -2.4773 O.3     1  UNL1       -0.3863
      2 C          -5.2185    0.2458   -1.1246 C.3     1  UNL1        0.1157
      3 C          -3.7078   -0.0392   -1.0223 C.3     1  UNL1        0.1455
      4 O          -2.9624    1.0039   -1.5989 O.3     1  UNL1       -0.3829
      5 C          -3.3012   -0.2792    0.4522 C.3     1  UNL1        0.2312
      6 O          -1.9215   -0.6512    0.5153 O.3     1  UNL1       -0.4606
      7 C          -0.8126    0.2128    0.4898 C.ar    1  UNL1        0.1310
      8 C          -0.9157    1.6059    0.6632 C.ar    1  UNL1        0.0226
      9 C           0.2263    2.4203    0.6276 C.ar    1  UNL1        0.1347
     10 O           0.0886    3.7988    0.7976 O.3     1  UNL1       -0.5058
     11 C           1.4983    1.8389    0.4231 C.ar    1  UNL1        0.1055
     12 C           2.6903    2.5888    0.3682 C.ar    1  UNL1        0.1966
     13 O           2.6839    3.8434    0.4927 O.2     1  UNL1       -0.2869
     14 C           3.9066    1.9351    0.1671 C.ar    1  UNL1        0.0288
     15 C           3.9247    0.5377    0.0261 C.ar    1  UNL1        0.1393
     16 O           2.7796   -0.1393    0.0729 O.2     1  UNL1       -0.4544
     17 C           1.5971    0.4381    0.2618 C.ar    1  UNL1        0.1462
     18 C           0.4491   -0.3568    0.2991 C.ar    1  UNL1        0.0235
     19 C           5.1882   -0.2114   -0.1909 C.ar    1  UNL1        0.0211
     20 C           6.4231    0.2626    0.2935 C.ar    1  UNL1       -0.0059
     21 C           7.6015   -0.4692    0.0836 C.ar    1  UNL1        0.1589
     22 O           8.8187    0.0101    0.5657 O.3     1  UNL1       -0.5033
     23 C           7.5522   -1.6893   -0.6100 C.ar    1  UNL1        0.1583
     24 O           8.7067   -2.4377   -0.8372 O.3     1  UNL1       -0.5033
     25 C           6.3274   -2.1697   -1.0807 C.ar    1  UNL1       -0.0159
     26 C           5.1541   -1.4416   -0.8698 C.ar    1  UNL1       -0.0474
     27 O          -4.0553   -1.3537    0.9873 O.3     1  UNL1       -0.3221
     28 C          -5.4327   -1.0250    1.0500 C.3     1  UNL1        0.1869
     29 C          -6.0075   -0.8447   -0.3741 C.3     1  UNL1        0.1202
     30 O          -7.3783   -0.5296   -0.3336 O.3     1  UNL1       -0.3860
     31 C          -6.1537   -2.1346    1.7561 C.2     1  UNL1        0.3367
     32 O          -5.8890   -3.4597    1.4220 O.3     1  UNL1       -0.4788
     33 O          -7.0228   -1.8690    2.6294 O.2     1  UNL1       -0.2480
     34 H          -6.4603    0.7533   -2.5266 H       1  UNL1        0.2100
     35 H          -5.4258    1.2370   -0.6545 H       1  UNL1        0.0648
     36 H          -3.4866   -0.9687   -1.5929 H       1  UNL1        0.0683
     37 H          -3.2168    1.8464   -1.1400 H       1  UNL1        0.2102
     38 H          -3.4745    0.6301    1.0684 H       1  UNL1        0.1084
     39 H          -1.8708    2.0767    0.8357 H       1  UNL1        0.0691
     40 H          -0.8161    4.2309    0.9447 H       1  UNL1        0.2922
     41 H           4.8157    2.5184    0.0964 H       1  UNL1        0.0693
     42 H           0.5371   -1.4291    0.1730 H       1  UNL1        0.0691
     43 H           6.4782    1.1844    0.8566 H       1  UNL1        0.0662
     44 H           8.8824    0.8867    1.0700 H       1  UNL1        0.2923
     45 H           9.6176   -2.1327   -0.5157 H       1  UNL1        0.2923
     46 H           6.2846   -3.1117   -1.6128 H       1  UNL1        0.0655
     47 H           4.2196   -1.8359   -1.2498 H       1  UNL1        0.0626
     48 H          -5.5796   -0.0896    1.6408 H       1  UNL1        0.0742
     49 H          -5.8913   -1.8035   -0.9281 H       1  UNL1        0.0652
     50 H          -7.4783    0.3151    0.1789 H       1  UNL1        0.2100
     51 H          -6.3778   -4.2188    1.8811 H       1  UNL1        0.2951
@<TRIPOS>BOND
     1     1     2    1
     2     2     3    1
     3     3     4    1
     4     3     5    1
     5     5     6    1
     6     6     7    1
     7     7     8   ar
     8     8     9   ar
     9     9    10    1
    10     9    11   ar
    11    11    12   ar
    12    12    13    2
    13    12    14   ar
    14    14    15   ar
    15    15    16   ar
    16    16    17   ar
    17    17    18   ar
    18    15    19    1
    19    19    20   ar
    20    20    21   ar
    21    21    22    1
    22    21    23   ar
    23    23    24    1
    24    23    25   ar
    25    25    26   ar
    26     5    27    1
    27    27    28    1
    28    28    29    1
    29    29    30    1
    30    28    31    1
    31    31    32    1
    32    31    33    2
    33    29     2    1
    34    18     7   ar
    35    26    19   ar
    36    17    11   ar
    37     1    34    1
    38     2    35    1
    39     3    36    1
    40     4    37    1
    41     5    38    1
    42     8    39    1
    43    10    40    1
    44    14    41    1
    45    18    42    1
    46    20    43    1
    47    22    44    1
    48    24    45    1
    49    25    46    1
    50    26    47    1
    51    28    48    1
    52    29    49    1
    53    30    50    1
    54    32    51    1
