@<TRIPOS>MOLECULE
Apigenin 7-O-glucuronide
 50 53 0 0 0
SMALL
GASTEIGER

@<TRIPOS>ATOM
      1 O           3.4239    3.0776    1.5078 O.3     1  UNL1       -0.3863
      2 C           4.4253    2.6789    0.6017 C.3     1  UNL1        0.1157
      3 C           3.7977    2.2304   -0.7378 C.3     1  UNL1        0.1455
      4 O           4.7960    2.1641   -1.7259 O.3     1  UNL1       -0.3829
      5 C           3.1125    0.8369   -0.6105 C.3     1  UNL1        0.2312
      6 O           1.6973    1.0250   -0.5803 O.3     1  UNL1       -0.4606
      7 C           0.7439   -0.0055   -0.6045 C.ar    1  UNL1        0.1310
      8 C           1.0966   -1.3630   -0.7156 C.ar    1  UNL1        0.0226
      9 C           0.1108   -2.3609   -0.7333 C.ar    1  UNL1        0.1347
     10 O           0.4937   -3.6985   -0.8425 O.3     1  UNL1       -0.5058
     11 C          -1.2537   -2.0020   -0.6413 C.ar    1  UNL1        0.1055
     12 C          -2.3017   -2.9442   -0.6465 C.ar    1  UNL1        0.1966
     13 O          -2.0728   -4.1813   -0.7292 O.2     1  UNL1       -0.2869
     14 C          -3.6231   -2.5053   -0.5535 C.ar    1  UNL1        0.0288
     15 C          -3.8891   -1.1293   -0.4595 C.ar    1  UNL1        0.1392
     16 O          -2.8754   -0.2666   -0.4474 O.2     1  UNL1       -0.4544
     17 C          -1.6012   -0.6356   -0.5334 C.ar    1  UNL1        0.1462
     18 C          -0.6055    0.3445   -0.5162 C.ar    1  UNL1        0.0235
     19 C          -5.2741   -0.6042   -0.3569 C.ar    1  UNL1        0.0176
     20 C          -6.3725   -1.2979   -0.9030 C.ar    1  UNL1       -0.0476
     21 C          -7.6646   -0.7734   -0.7995 C.ar    1  UNL1       -0.0195
     22 C          -7.8798    0.4499   -0.1593 C.ar    1  UNL1        0.1169
     23 O          -9.1730    0.9585   -0.0633 O.3     1  UNL1       -0.5068
     24 C          -6.7938    1.1532    0.3757 C.ar    1  UNL1       -0.0195
     25 C          -5.5003    0.6329    0.2736 C.ar    1  UNL1       -0.0476
     26 O           3.4998    0.1258    0.5589 O.3     1  UNL1       -0.3221
     27 C           4.9016    0.1690    0.7335 C.3     1  UNL1        0.1869
     28 C           5.3311    1.5746    1.2156 C.3     1  UNL1        0.1202
     29 O           6.6710    1.7889    0.8498 O.3     1  UNL1       -0.3860
     30 C           5.3093   -0.8749    1.7306 C.2     1  UNL1        0.3367
     31 O           6.4999   -1.5729    1.5534 O.3     1  UNL1       -0.4788
     32 O           4.5994   -1.0928    2.7494 O.2     1  UNL1       -0.2480
     33 H           2.8926    2.2777    1.7557 H       1  UNL1        0.2100
     34 H           5.0442    3.5820    0.4053 H       1  UNL1        0.0648
     35 H           3.0367    2.9861   -1.0477 H       1  UNL1        0.0683
     36 H           5.0021    3.0978   -1.9938 H       1  UNL1        0.2102
     37 H           3.3581    0.2281   -1.5108 H       1  UNL1        0.1084
     38 H           2.1339   -1.6581   -0.7902 H       1  UNL1        0.0691
     39 H           1.4675   -3.9711   -0.9089 H       1  UNL1        0.2922
     40 H          -4.4223   -3.2348   -0.5287 H       1  UNL1        0.0693
     41 H          -0.8825    1.3883   -0.4321 H       1  UNL1        0.0691
     42 H          -6.2382   -2.2314   -1.4322 H       1  UNL1        0.0626
     43 H          -8.4997   -1.3158   -1.2243 H       1  UNL1        0.0654
     44 H          -9.3615    1.8432    0.3937 H       1  UNL1        0.2921
     45 H          -6.9505    2.1031    0.8708 H       1  UNL1        0.0654
     46 H          -4.6770    1.1936    0.6990 H       1  UNL1        0.0626
     47 H           5.4165   -0.0786   -0.2260 H       1  UNL1        0.0742
     48 H           5.2426    1.6271    2.3281 H       1  UNL1        0.0652
     49 H           7.0098    2.5302    1.4170 H       1  UNL1        0.2100
     50 H           6.7987   -2.2693    2.2256 H       1  UNL1        0.2951
@<TRIPOS>BOND
     1     1     2    1
     2     2     3    1
     3     3     4    1
     4     3     5    1
     5     5     6    1
     6     6     7    1
     7     7     8   ar
     8     8     9   ar
     9     9    10    1
    10     9    11   ar
    11    11    12   ar
    12    12    13    2
    13    12    14   ar
    14    14    15   ar
    15    15    16   ar
    16    16    17   ar
    17    17    18   ar
    18    15    19    1
    19    19    20   ar
    20    20    21   ar
    21    21    22   ar
    22    22    23    1
    23    22    24   ar
    24    24    25   ar
    25     5    26    1
    26    26    27    1
    27    27    28    1
    28    28    29    1
    29    27    30    1
    30    30    31    1
    31    30    32    2
    32    28     2    1
    33    18     7   ar
    34    25    19   ar
    35    17    11   ar
    36     1    33    1
    37     2    34    1
    38     3    35    1
    39     4    36    1
    40     5    37    1
    41     8    38    1
    42    10    39    1
    43    14    40    1
    44    18    41    1
    45    20    42    1
    46    21    43    1
    47    23    44    1
    48    24    45    1
    49    25    46    1
    50    27    47    1
    51    28    48    1
    52    29    49    1
    53    31    50    1
