@<TRIPOS>MOLECULE
Luteolin 7-O-malonyl-glucoside
 60 63 0 0 0
SMALL
GASTEIGER

@<TRIPOS>ATOM
      1 O          -1.0086   -3.7904   -0.8543 O.3     1  UNL1       -0.3864
      2 C          -1.7728   -2.9522   -1.6867 C.3     1  UNL1        0.1152
      3 C          -3.2337   -2.8766   -1.1844 C.3     1  UNL1        0.1130
      4 O          -3.9482   -4.0188   -1.5912 O.3     1  UNL1       -0.3864
      5 C          -3.9080   -1.5674   -1.6813 C.3     1  UNL1        0.1250
      6 C          -5.3727   -1.5040   -1.2170 C.3     1  UNL1        0.1212
      7 O          -6.0140   -0.3367   -1.7302 O.3     1  UNL1       -0.4616
      8 C          -5.9613    0.9146   -1.1049 C.2     1  UNL1        0.3180
      9 O          -5.4217    1.0503    0.0274 O.2     1  UNL1       -0.2502
     10 C          -6.5101    2.1094   -1.8116 C.3     1  UNL1        0.1418
     11 C          -5.4696    2.6776   -2.7204 C.2     1  UNL1        0.3155
     12 O          -4.5456    3.5940   -2.2280 O.3     1  UNL1       -0.4802
     13 O          -5.4011    2.2959   -3.9194 O.2     1  UNL1       -0.2504
     14 O          -3.2467   -0.3743   -1.2624 O.3     1  UNL1       -0.3302
     15 C          -1.8702   -0.5119   -0.9331 C.3     1  UNL1        0.2308
     16 O          -1.7563   -0.8331    0.4564 O.3     1  UNL1       -0.4606
     17 C          -0.5966   -0.7160    1.2409 C.ar    1  UNL1        0.1310
     18 C          -0.6360   -1.2151    2.5433 C.ar    1  UNL1        0.0226
     19 C           0.4717   -1.1300    3.3945 C.ar    1  UNL1        0.1347
     20 O           0.2892   -1.5854    4.7036 O.3     1  UNL1       -0.5058
     21 C           1.6908   -0.5751    2.9073 C.ar    1  UNL1        0.1055
     22 C           2.9064   -0.5412    3.6312 C.ar    1  UNL1        0.1966
     23 O           3.0235   -1.0766    4.7638 O.2     1  UNL1       -0.2869
     24 C           4.0302    0.0675    3.0709 C.ar    1  UNL1        0.0288
     25 C           3.9527    0.6123    1.7819 C.ar    1  UNL1        0.1393
     26 O           2.8145    0.5175    1.1026 O.2     1  UNL1       -0.4544
     27 C           1.7141   -0.0455    1.5909 C.ar    1  UNL1        0.1462
     28 C           0.5813   -0.1120    0.7764 C.ar    1  UNL1        0.0235
     29 C           5.1165    1.2719    1.1377 C.ar    1  UNL1        0.0211
     30 C           6.1189    1.9094    1.8947 C.ar    1  UNL1       -0.0059
     31 C           7.2037    2.5345    1.2617 C.ar    1  UNL1        0.1589
     32 O           8.1913    3.1609    2.0207 O.3     1  UNL1       -0.5033
     33 C           7.2910    2.5320   -0.1399 C.ar    1  UNL1        0.1583
     34 O           8.3587    3.1419   -0.7977 O.3     1  UNL1       -0.5033
     35 C           6.2921    1.9122   -0.8952 C.ar    1  UNL1       -0.0159
     36 C           5.2112    1.2916   -0.2645 C.ar    1  UNL1       -0.0474
     37 C          -1.1295   -1.5491   -1.8148 C.3     1  UNL1        0.1454
     38 O          -1.1777   -1.1351   -3.1573 O.3     1  UNL1       -0.3829
     39 H          -0.9554   -3.3639    0.0401 H       1  UNL1        0.2100
     40 H          -1.7697   -3.4189   -2.6970 H       1  UNL1        0.0648
     41 H          -3.2411   -2.8611   -0.0724 H       1  UNL1        0.0647
     42 H          -4.0325   -3.9866   -2.5802 H       1  UNL1        0.2100
     43 H          -3.9151   -1.5777   -2.7943 H       1  UNL1        0.0658
     44 H          -5.9219   -2.3876   -1.6052 H       1  UNL1        0.0724
     45 H          -5.4360   -1.5295   -0.1067 H       1  UNL1        0.0724
     46 H          -7.4068    1.8150   -2.3983 H       1  UNL1        0.0493
     47 H          -6.8204    2.8797   -1.0731 H       1  UNL1        0.0493
     48 H          -3.8218    3.9741   -2.8262 H       1  UNL1        0.2951
     49 H          -1.4131    0.4854   -1.1042 H       1  UNL1        0.1084
     50 H          -1.5544   -1.6575    2.9101 H       1  UNL1        0.0691
     51 H           0.8837   -1.3502    5.4836 H       1  UNL1        0.2922
     52 H           4.9603    0.0737    3.6251 H       1  UNL1        0.0693
     53 H           0.6409    0.3028   -0.2196 H       1  UNL1        0.0691
     54 H           6.0545    1.9489    2.9738 H       1  UNL1        0.0662
     55 H           8.1524    3.1781    3.0332 H       1  UNL1        0.2923
     56 H           9.1068    3.6045   -0.2954 H       1  UNL1        0.2923
     57 H           6.3538    1.9112   -1.9761 H       1  UNL1        0.0655
     58 H           4.4539    0.8153   -0.8751 H       1  UNL1        0.0626
     59 H          -0.0624   -1.6170   -1.5020 H       1  UNL1        0.0683
     60 H          -0.5327   -0.3859   -3.2519 H       1  UNL1        0.2102
@<TRIPOS>BOND
     1     1     2    1
     2     2     3    1
     3     3     4    1
     4     3     5    1
     5     5     6    1
     6     6     7    1
     7     7     8    1
     8     8     9    2
     9     8    10    1
    10    10    11    1
    11    11    12    1
    12    11    13    2
    13     5    14    1
    14    14    15    1
    15    15    16    1
    16    16    17    1
    17    17    18   ar
    18    18    19   ar
    19    19    20    1
    20    19    21   ar
    21    21    22   ar
    22    22    23    2
    23    22    24   ar
    24    24    25   ar
    25    25    26   ar
    26    26    27   ar
    27    27    28   ar
    28    25    29    1
    29    29    30   ar
    30    30    31   ar
    31    31    32    1
    32    31    33   ar
    33    33    34    1
    34    33    35   ar
    35    35    36   ar
    36    15    37    1
    37    37    38    1
    38    37     2    1
    39    28    17   ar
    40    36    29   ar
    41    27    21   ar
    42     1    39    1
    43     2    40    1
    44     3    41    1
    45     4    42    1
    46     5    43    1
    47     6    44    1
    48     6    45    1
    49    10    46    1
    50    10    47    1
    51    12    48    1
    52    15    49    1
    53    18    50    1
    54    20    51    1
    55    24    52    1
    56    28    53    1
    57    30    54    1
    58    32    55    1
    59    34    56    1
    60    35    57    1
    61    36    58    1
    62    37    59    1
    63    38    60    1
