@<TRIPOS>MOLECULE
Luteolin 6-C-glucoside
 52 55 0 0 0
SMALL
GASTEIGER

@<TRIPOS>ATOM
      1 C          -2.8987   -0.4298   -0.5991 C.3     1  UNL1        0.1193
      2 O          -3.4445    0.7569   -0.0448 O.3     1  UNL1       -0.3609
      3 C          -4.8592    0.7634   -0.1322 C.3     1  UNL1        0.1108
      4 C          -5.3733    2.1293    0.3498 C.3     1  UNL1        0.0729
      5 O          -5.0358    2.3546    1.6931 O.3     1  UNL1       -0.3924
      6 C          -5.4586   -0.3950    0.7041 C.3     1  UNL1        0.1117
      7 O          -6.8645   -0.3915    0.6524 O.3     1  UNL1       -0.3865
      8 C          -4.9050   -1.7407    0.2071 C.3     1  UNL1        0.1121
      9 O          -5.3341   -2.7634    1.0689 O.3     1  UNL1       -0.3865
     10 C          -3.3682   -1.6956    0.1649 C.3     1  UNL1        0.1139
     11 O          -2.8984   -2.8500   -0.4850 O.3     1  UNL1       -0.3862
     12 C          -1.3752   -0.3326   -0.6016 C.ar    1  UNL1        0.0673
     13 C          -0.6370    0.0893    0.5452 C.ar    1  UNL1        0.1404
     14 O          -1.2705    0.4155    1.7511 O.3     1  UNL1       -0.5054
     15 C           0.7774    0.1800    0.4799 C.ar    1  UNL1        0.1058
     16 C           1.4451   -0.1776   -0.7112 C.ar    1  UNL1        0.1463
     17 O           2.7695   -0.1029   -0.7980 O.2     1  UNL1       -0.4544
     18 C           3.5468    0.3060    0.2010 C.ar    1  UNL1        0.1393
     19 C           2.9619    0.6679    1.4236 C.ar    1  UNL1        0.0288
     20 C           1.5753    0.6070    1.5655 C.ar    1  UNL1        0.1966
     21 O           1.0652    0.9356    2.6706 O.2     1  UNL1       -0.2869
     22 C           5.0160    0.3497   -0.0091 C.ar    1  UNL1        0.0211
     23 C           5.8389    1.2498    0.6960 C.ar    1  UNL1       -0.0059
     24 C           7.2235    1.2779    0.4721 C.ar    1  UNL1        0.1589
     25 O           8.0289    2.1715    1.1768 O.3     1  UNL1       -0.5033
     26 C           7.7972    0.4063   -0.4677 C.ar    1  UNL1        0.1583
     27 O           9.1705    0.4083   -0.7099 O.3     1  UNL1       -0.5033
     28 C           6.9831   -0.4790   -1.1789 C.ar    1  UNL1       -0.0159
     29 C           5.6042   -0.5053   -0.9569 C.ar    1  UNL1       -0.0474
     30 C           0.7232   -0.6195   -1.8140 C.ar    1  UNL1        0.0235
     31 C          -0.6694   -0.7058   -1.7697 C.ar    1  UNL1        0.1296
     32 O          -1.3534   -1.1703   -2.8947 O.3     1  UNL1       -0.5062
     33 H          -3.2577   -0.5154   -1.6500 H       1  UNL1        0.0676
     34 H          -5.1768    0.6590   -1.1963 H       1  UNL1        0.0646
     35 H          -4.9536    2.9358   -0.2943 H       1  UNL1        0.0584
     36 H          -6.4783    2.1736    0.2470 H       1  UNL1        0.0584
     37 H          -4.0829    2.6328    1.7064 H       1  UNL1        0.2095
     38 H          -5.1533   -0.2644    1.7663 H       1  UNL1        0.0647
     39 H          -7.1316   -0.4792   -0.3000 H       1  UNL1        0.2100
     40 H          -5.2923   -1.9261   -0.8239 H       1  UNL1        0.0647
     41 H          -5.2472   -3.6169    0.5693 H       1  UNL1        0.2100
     42 H          -2.9957   -1.6756    1.2148 H       1  UNL1        0.0649
     43 H          -1.9803   -3.0207   -0.1479 H       1  UNL1        0.2100
     44 H          -2.2587    0.3261    1.9326 H       1  UNL1        0.2922
     45 H           3.5679    0.9688    2.2685 H       1  UNL1        0.0693
     46 H           5.4131    1.9504    1.4016 H       1  UNL1        0.0662
     47 H           7.6408    2.8117    1.8598 H       1  UNL1        0.2923
     48 H           9.8023    1.0311   -0.2209 H       1  UNL1        0.2923
     49 H           7.4210   -1.1502   -1.9070 H       1  UNL1        0.0655
     50 H           4.9981   -1.2050   -1.5194 H       1  UNL1        0.0626
     51 H           1.2516   -0.9007   -2.7169 H       1  UNL1        0.0691
     52 H          -0.8674   -1.4453   -3.7404 H       1  UNL1        0.2922
@<TRIPOS>BOND
     1     1     2    1
     2     2     3    1
     3     3     4    1
     4     4     5    1
     5     3     6    1
     6     6     7    1
     7     6     8    1
     8     8     9    1
     9     8    10    1
    10    10    11    1
    11     1    12    1
    12    12    13   ar
    13    13    14    1
    14    13    15   ar
    15    15    16   ar
    16    16    17   ar
    17    17    18   ar
    18    18    19   ar
    19    19    20   ar
    20    20    21    2
    21    18    22    1
    22    22    23   ar
    23    23    24   ar
    24    24    25    1
    25    24    26   ar
    26    26    27    1
    27    26    28   ar
    28    28    29   ar
    29    16    30   ar
    30    30    31   ar
    31    31    32    1
    32    10     1    1
    33    31    12   ar
    34    20    15   ar
    35    29    22   ar
    36     1    33    1
    37     3    34    1
    38     4    35    1
    39     4    36    1
    40     5    37    1
    41     6    38    1
    42     7    39    1
    43     8    40    1
    44     9    41    1
    45    10    42    1
    46    11    43    1
    47    14    44    1
    48    19    45    1
    49    23    46    1
    50    25    47    1
    51    27    48    1
    52    28    49    1
    53    29    50    1
    54    30    51    1
    55    32    52    1
