@<TRIPOS>MOLECULE
Luteolin 7-O-(2-apiosyl-glucoside)
 69 73 0 0 0
SMALL
GASTEIGER

@<TRIPOS>ATOM
      1 C           3.5800    0.8684    0.0179 C.3     1  UNL1        0.1885
      2 O           3.3021   -0.1372   -0.9378 O.3     1  UNL1       -0.3366
      3 C           3.2323   -1.4236   -0.3397 C.3     1  UNL1        0.1519
      4 C           1.8757   -2.0555   -0.6852 C.3     1  UNL1        0.2312
      5 O           0.8445   -1.1778   -0.2353 O.3     1  UNL1       -0.4606
      6 C          -0.5241   -1.3329   -0.5009 C.ar    1  UNL1        0.1310
      7 C          -1.0335   -2.4043   -1.2564 C.ar    1  UNL1        0.0226
      8 C          -2.4106   -2.5194   -1.4982 C.ar    1  UNL1        0.1347
      9 O          -2.8853   -3.5952   -2.2500 O.3     1  UNL1       -0.5058
     10 C          -3.2982   -1.5483   -0.9801 C.ar    1  UNL1        0.1055
     11 C          -4.6933   -1.5956   -1.1746 C.ar    1  UNL1        0.1966
     12 O          -5.2343   -2.5280   -1.8283 O.2     1  UNL1       -0.2869
     13 C          -5.4990   -0.5944   -0.6305 C.ar    1  UNL1        0.0288
     14 C          -4.9064    0.4484    0.1005 C.ar    1  UNL1        0.1393
     15 O          -3.5867    0.4576    0.2741 O.2     1  UNL1       -0.4544
     16 C          -2.7781   -0.4726   -0.2237 C.ar    1  UNL1        0.1462
     17 C          -1.4040   -0.3755    0.0086 C.ar    1  UNL1        0.0235
     18 C          -5.7127    1.5402    0.7029 C.ar    1  UNL1        0.0211
     19 C          -6.9426    1.9440    0.1492 C.ar    1  UNL1       -0.0474
     20 C          -7.6748    2.9819    0.7315 C.ar    1  UNL1       -0.0159
     21 C          -7.1928    3.6387    1.8669 C.ar    1  UNL1        0.1583
     22 O          -7.9474    4.6698    2.4256 O.3     1  UNL1       -0.5033
     23 C          -5.9617    3.2554    2.4228 C.ar    1  UNL1        0.1589
     24 O          -5.4725    3.9088    3.5530 O.3     1  UNL1       -0.5033
     25 C          -5.2267    2.2141    1.8376 C.ar    1  UNL1       -0.0059
     26 O           1.7144   -3.3137   -0.0500 O.3     1  UNL1       -0.3313
     27 C           2.8125   -4.2133   -0.2045 C.3     1  UNL1        0.1140
     28 C           3.3683   -4.5620    1.1865 C.3     1  UNL1        0.0731
     29 O           2.3540   -5.0816    2.0038 O.3     1  UNL1       -0.3924
     30 C           3.9493   -3.7481   -1.1646 C.3     1  UNL1        0.1120
     31 O           3.5092   -3.8402   -2.4975 O.3     1  UNL1       -0.3865
     32 C           4.3927   -2.2967   -0.8743 C.3     1  UNL1        0.1155
     33 O           5.4477   -2.3073    0.0540 O.3     1  UNL1       -0.3863
     34 O           2.4705    1.0458    0.8784 O.3     1  UNL1       -0.3457
     35 C           2.0641    2.3909    0.7850 C.3     1  UNL1        0.0843
     36 C           3.2132    3.2091    0.2107 C.3     1  UNL1        0.1425
     37 O           4.0704    3.5728    1.2713 O.3     1  UNL1       -0.3812
     38 C           2.6982    4.4578   -0.5415 C.3     1  UNL1        0.0778
     39 O           3.7600    5.1224   -1.1702 O.3     1  UNL1       -0.3920
     40 C           3.8622    2.1852   -0.7010 C.3     1  UNL1        0.1387
     41 O           5.2408    2.4094   -0.8492 O.3     1  UNL1       -0.3837
     42 H           4.4704    0.5984    0.6337 H       1  UNL1        0.0938
     43 H           3.2883   -1.4003    0.7775 H       1  UNL1        0.0687
     44 H           1.7839   -2.1626   -1.7890 H       1  UNL1        0.1084
     45 H          -0.3702   -3.1557   -1.6619 H       1  UNL1        0.0691
     46 H          -2.2613   -4.2988   -2.6276 H       1  UNL1        0.2922
     47 H          -6.5723   -0.6513   -0.7584 H       1  UNL1        0.0693
     48 H          -1.0151    0.4526    0.5889 H       1  UNL1        0.0691
     49 H          -7.3323    1.4806   -0.7469 H       1  UNL1        0.0626
     50 H          -8.6185    3.2822    0.2938 H       1  UNL1        0.0655
     51 H          -7.6408    5.1767    3.2472 H       1  UNL1        0.2923
     52 H          -4.5871    3.6518    3.9735 H       1  UNL1        0.2923
     53 H          -4.2804    1.9248    2.2786 H       1  UNL1        0.0662
     54 H           2.4023   -5.1586   -0.6231 H       1  UNL1        0.0647
     55 H           3.7722   -3.6499    1.6720 H       1  UNL1        0.0584
     56 H           4.2010   -5.2972    1.1014 H       1  UNL1        0.0584
     57 H           2.2003   -6.0165    1.7072 H       1  UNL1        0.2095
     58 H           4.8350   -4.4173   -1.0456 H       1  UNL1        0.0647
     59 H           3.5198   -4.8027   -2.7416 H       1  UNL1        0.2100
     60 H           4.7692   -1.8659   -1.8335 H       1  UNL1        0.0648
     61 H           5.8899   -1.4201   -0.0028 H       1  UNL1        0.2100
     62 H           1.7733    2.7644    1.7905 H       1  UNL1        0.0591
     63 H           1.1654    2.4369    0.1300 H       1  UNL1        0.0591
     64 H           4.7999    4.1361    0.9037 H       1  UNL1        0.2105
     65 H           2.2066    5.1434    0.1850 H       1  UNL1        0.0587
     66 H           1.9458    4.1627   -1.3080 H       1  UNL1        0.0587
     67 H           3.3634    5.9144   -1.6178 H       1  UNL1        0.2095
     68 H           3.3610    2.1931   -1.6993 H       1  UNL1        0.0675
     69 H           5.5526    1.7813   -1.5518 H       1  UNL1        0.2101
@<TRIPOS>BOND
     1     1     2    1
     2     2     3    1
     3     3     4    1
     4     4     5    1
     5     5     6    1
     6     6     7   ar
     7     7     8   ar
     8     8     9    1
     9     8    10   ar
    10    10    11   ar
    11    11    12    2
    12    11    13   ar
    13    13    14   ar
    14    14    15   ar
    15    15    16   ar
    16    16    17   ar
    17    14    18    1
    18    18    19   ar
    19    19    20   ar
    20    20    21   ar
    21    21    22    1
    22    21    23   ar
    23    23    24    1
    24    23    25   ar
    25     4    26    1
    26    26    27    1
    27    27    28    1
    28    28    29    1
    29    27    30    1
    30    30    31    1
    31    30    32    1
    32    32    33    1
    33     1    34    1
    34    34    35    1
    35    35    36    1
    36    36    37    1
    37    36    38    1
    38    38    39    1
    39    36    40    1
    40    40    41    1
    41    40     1    1
    42    32     3    1
    43    17     6   ar
    44    25    18   ar
    45    16    10   ar
    46     1    42    1
    47     3    43    1
    48     4    44    1
    49     7    45    1
    50     9    46    1
    51    13    47    1
    52    17    48    1
    53    19    49    1
    54    20    50    1
    55    22    51    1
    56    24    52    1
    57    25    53    1
    58    27    54    1
    59    28    55    1
    60    28    56    1
    61    29    57    1
    62    30    58    1
    63    31    59    1
    64    32    60    1
    65    33    61    1
    66    35    62    1
    67    35    63    1
    68    37    64    1
    69    38    65    1
    70    38    66    1
    71    39    67    1
    72    40    68    1
    73    41    69    1
