@<TRIPOS>MOLECULE
Malvidin 3,5-O-diglucoside
 81 85 0 0 0
SMALL
GASTEIGER

@<TRIPOS>ATOM
      1 C          -6.4730    0.1668    0.0540 C.3     1  UNL1        0.0790
      2 O          -6.4739    1.5909    0.0159 O.3     1  UNL1       -0.4913
      3 C          -5.3278    2.3905    0.1542 C.ar    1  UNL1        0.1658
      4 C          -4.0575    1.8370    0.3901 C.ar    1  UNL1        0.0002
      5 C          -2.9250    2.6598    0.4924 C.ar    1  UNL1        0.0899
      6 C          -3.0787    4.0506    0.4096 C.ar    1  UNL1        0.0002
      7 C          -4.3457    4.6217    0.1853 C.ar    1  UNL1        0.1658
      8 O          -4.5261    6.0110    0.0875 O.3     1  UNL1       -0.4913
      9 C          -3.4820    6.9725    0.2027 C.3     1  UNL1        0.0790
     10 C          -5.4667    3.7817    0.0527 C.ar    1  UNL1        0.2011
     11 O          -6.7349    4.3168   -0.1792 O.3     1  UNL1       -0.5009
     12 C          -1.5814    2.0857    0.7366 C.ar    1  UNL1        0.4047
     13 C          -1.1293    0.9358    0.0553 C.ar    1  UNL1        0.2288
     14 O          -1.9466    0.3502   -0.9279 O.3     1  UNL1       -0.4515
     15 C          -1.8171   -0.9683   -1.4639 C.3     1  UNL1        0.2312
     16 O          -2.6876   -1.0675   -2.5734 O.3     1  UNL1       -0.3313
     17 C          -2.3883   -2.2217   -3.3432 C.3     1  UNL1        0.1140
     18 C          -3.4057   -2.2998   -4.4901 C.3     1  UNL1        0.0731
     19 O          -3.0149   -3.2672   -5.4298 O.3     1  UNL1       -0.3924
     20 C          -2.3968   -3.5302   -2.4782 C.3     1  UNL1        0.1120
     21 O          -1.1364   -4.1567   -2.4793 O.3     1  UNL1       -0.3865
     22 C          -2.8817   -3.2738   -1.0294 C.3     1  UNL1        0.1152
     23 O          -4.2784   -3.1040   -1.0363 O.3     1  UNL1       -0.3864
     24 C          -2.2323   -2.0141   -0.3971 C.3     1  UNL1        0.1454
     25 O          -1.1527   -2.3578    0.4357 O.3     1  UNL1       -0.3829
     26 C           0.1490    0.4430    0.3602 C.ar    1  UNL1        0.0093
     27 C           0.9421    1.0930    1.3136 C.ar    1  UNL1        0.1245
     28 C           2.2282    0.6259    1.6532 C.ar    1  UNL1        0.1437
     29 O           2.7208   -0.5325    1.0271 O.3     1  UNL1       -0.4598
     30 C           3.9999   -1.1166    1.2651 C.3     1  UNL1        0.2308
     31 O           5.0050   -0.2247    0.8157 O.3     1  UNL1       -0.3313
     32 C           6.2927   -0.7097    1.1581 C.3     1  UNL1        0.1140
     33 C           7.3146    0.3872    0.8157 C.3     1  UNL1        0.0731
     34 O           8.5934    0.0584    1.2886 O.3     1  UNL1       -0.3924
     35 C           6.5887   -2.0210    0.3889 C.3     1  UNL1        0.1120
     36 O           7.8338   -2.5371    0.7844 O.3     1  UNL1       -0.3865
     37 C           5.4841   -3.0574    0.6867 C.3     1  UNL1        0.1152
     38 O           5.6427   -4.2038   -0.1124 O.3     1  UNL1       -0.3864
     39 C           4.0863   -2.4386    0.4889 C.3     1  UNL1        0.1454
     40 O           3.0980   -3.3187    0.9585 O.3     1  UNL1       -0.3829
     41 C           2.9804    1.3314    2.6143 C.ar    1  UNL1        0.0229
     42 C           2.4604    2.4822    3.2220 C.ar    1  UNL1        0.1293
     43 O           3.2048    3.1813    4.1697 O.3     1  UNL1       -0.5063
     44 C           1.1850    2.9367    2.8796 C.ar    1  UNL1        0.0847
     45 C           0.4229    2.2488    1.9324 C.ar    1  UNL1        0.3708
     46 O          -0.7912    2.6890    1.6222 O.2     1  UNL1       -0.1997
     47 H          -5.8213   -0.2373   -0.7498 H       1  UNL1        0.0660
     48 H          -6.1215   -0.1887    1.0456 H       1  UNL1        0.0660
     49 H          -7.5068   -0.2009   -0.1082 H       1  UNL1        0.0660
     50 H          -3.9501    0.7695    0.5158 H       1  UNL1        0.0664
     51 H          -2.2047    4.6810    0.5068 H       1  UNL1        0.0664
     52 H          -2.7262    6.8131   -0.5951 H       1  UNL1        0.0660
     53 H          -3.9112    7.9887    0.0868 H       1  UNL1        0.0660
     54 H          -3.0050    6.9003    1.2029 H       1  UNL1        0.0660
     55 H          -6.8956    5.3134   -0.2615 H       1  UNL1        0.2924
     56 H          -0.7649   -1.1178   -1.7967 H       1  UNL1        0.1084
     57 H          -1.3915   -2.0841   -3.8237 H       1  UNL1        0.0647
     58 H          -4.4271   -2.5029   -4.0896 H       1  UNL1        0.0584
     59 H          -3.4440   -1.3162   -5.0056 H       1  UNL1        0.0584
     60 H          -3.5608   -4.0786   -5.2606 H       1  UNL1        0.2095
     61 H          -3.0985   -4.2702   -2.9209 H       1  UNL1        0.0647
     62 H          -0.4495   -3.4779   -2.2585 H       1  UNL1        0.2100
     63 H          -2.6312   -4.1605   -0.3993 H       1  UNL1        0.0648
     64 H          -4.6821   -4.0083   -1.1106 H       1  UNL1        0.2100
     65 H          -2.9959   -1.5432    0.2612 H       1  UNL1        0.0683
     66 H          -0.4646   -2.8025   -0.1208 H       1  UNL1        0.2102
     67 H           0.5387   -0.4224   -0.1539 H       1  UNL1        0.0667
     68 H           4.0958   -1.3209    2.3579 H       1  UNL1        0.1084
     69 H           6.3562   -0.8935    2.2570 H       1  UNL1        0.0647
     70 H           7.3633    0.5284   -0.2852 H       1  UNL1        0.0584
     71 H           6.9867    1.3555    1.2590 H       1  UNL1        0.0584
     72 H           8.5791    0.2014    2.2709 H       1  UNL1        0.2095
     73 H           6.5966   -1.7925   -0.7038 H       1  UNL1        0.0647
     74 H           8.1332   -3.1503    0.0634 H       1  UNL1        0.2100
     75 H           5.5785   -3.3708    1.7508 H       1  UNL1        0.0648
     76 H           5.5552   -3.9242   -1.0613 H       1  UNL1        0.2100
     77 H           3.9207   -2.2176   -0.5927 H       1  UNL1        0.0683
     78 H           2.9607   -4.0003    0.2499 H       1  UNL1        0.2102
     79 H           3.9685    0.9974    2.8985 H       1  UNL1        0.0691
     80 H           4.1334    2.8803    4.4418 H       1  UNL1        0.2921
     81 H           0.7850    3.8252    3.3525 H       1  UNL1        0.0749
@<TRIPOS>UNITY_ATOM_ATTR
46 1
charge 1
@<TRIPOS>BOND
     1     1     2    1
     2     2     3    1
     3     3     4   ar
     4     4     5   ar
     5     5     6   ar
     6     6     7   ar
     7     7     8    1
     8     8     9    1
     9     7    10   ar
    10    10    11    1
    11     5    12    1
    12    12    13   ar
    13    13    14    1
    14    14    15    1
    15    15    16    1
    16    16    17    1
    17    17    18    1
    18    18    19    1
    19    17    20    1
    20    20    21    1
    21    20    22    1
    22    22    23    1
    23    22    24    1
    24    24    25    1
    25    13    26   ar
    26    26    27   ar
    27    27    28   ar
    28    28    29    1
    29    29    30    1
    30    30    31    1
    31    31    32    1
    32    32    33    1
    33    33    34    1
    34    32    35    1
    35    35    36    1
    36    35    37    1
    37    37    38    1
    38    37    39    1
    39    39    40    1
    40    28    41   ar
    41    41    42   ar
    42    42    43    1
    43    42    44   ar
    44    44    45   ar
    45    45    46   ar
    46    10     3   ar
    47    46    12   ar
    48    24    15    1
    49    45    27   ar
    50    39    30    1
    51     1    47    1
    52     1    48    1
    53     1    49    1
    54     4    50    1
    55     6    51    1
    56     9    52    1
    57     9    53    1
    58     9    54    1
    59    11    55    1
    60    15    56    1
    61    17    57    1
    62    18    58    1
    63    18    59    1
    64    19    60    1
    65    20    61    1
    66    21    62    1
    67    22    63    1
    68    23    64    1
    69    24    65    1
    70    25    66    1
    71    26    67    1
    72    30    68    1
    73    32    69    1
    74    33    70    1
    75    33    71    1
    76    34    72    1
    77    35    73    1
    78    36    74    1
    79    37    75    1
    80    38    76    1
    81    39    77    1
    82    40    78    1
    83    41    79    1
    84    43    80    1
    85    44    81    1
