@<TRIPOS>MOLECULE
Luteolin 7-O-(2-apiosyl-6-malonyl)-glucoside
 77 81 0 0 0
SMALL
GASTEIGER

@<TRIPOS>ATOM
      1 C          -2.8232   -1.5553    1.3212 C.3     1  UNL1        0.1885
      2 O          -2.8264   -0.4116    0.4855 O.3     1  UNL1       -0.3366
      3 C          -1.9822    0.6115    0.9932 C.3     1  UNL1        0.1519
      4 C          -1.3530    1.3810   -0.2139 C.3     1  UNL1        0.2312
      5 O           0.0586    1.5115   -0.0284 O.3     1  UNL1       -0.4606
      6 C           0.9968    0.4689   -0.1231 C.ar    1  UNL1        0.1310
      7 C           0.6567   -0.8232   -0.5555 C.ar    1  UNL1        0.0226
      8 C           1.6160   -1.8400   -0.6317 C.ar    1  UNL1        0.1347
      9 O           1.1848   -3.0659   -1.1477 O.3     1  UNL1       -0.5058
     10 C           2.9540   -1.5779   -0.2157 C.ar    1  UNL1        0.1055
     11 C           3.9792   -2.5505   -0.1391 C.ar    1  UNL1        0.1966
     12 O           3.7624   -3.7680   -0.3709 O.2     1  UNL1       -0.2869
     13 C           5.2676   -2.1714    0.2401 C.ar    1  UNL1        0.0288
     14 C           5.5268   -0.8347    0.5728 C.ar    1  UNL1        0.1393
     15 O           4.5329    0.0472    0.5466 O.2     1  UNL1       -0.4544
     16 C           3.2909   -0.2595    0.1869 C.ar    1  UNL1        0.1462
     17 C           2.3188    0.7422    0.2227 C.ar    1  UNL1        0.0235
     18 C           6.8786   -0.3763    0.9816 C.ar    1  UNL1        0.0211
     19 C           7.0044    0.7458    1.8190 C.ar    1  UNL1       -0.0474
     20 C           8.2653    1.2018    2.2119 C.ar    1  UNL1       -0.0159
     21 C           9.4217    0.5503    1.7664 C.ar    1  UNL1        0.1583
     22 O          10.6812    1.0014    2.1572 O.3     1  UNL1       -0.5033
     23 C           9.3128   -0.5592    0.9201 C.ar    1  UNL1        0.1589
     24 O          10.4666   -1.1986    0.4698 O.3     1  UNL1       -0.5033
     25 C           8.0472   -1.0186    0.5268 C.ar    1  UNL1       -0.0059
     26 O          -1.8917    2.6861   -0.3653 O.3     1  UNL1       -0.3301
     27 C          -3.3066    2.6366   -0.3887 C.3     1  UNL1        0.1250
     28 C          -3.8452    3.9715   -0.9209 C.3     1  UNL1        0.1212
     29 O          -3.3528    4.2253   -2.2357 O.3     1  UNL1       -0.4616
     30 C          -3.8343    3.5761   -3.3782 C.2     1  UNL1        0.3180
     31 O          -4.8077    2.7770   -3.3055 O.2     1  UNL1       -0.2502
     32 C          -3.2196    3.8765   -4.7054 C.3     1  UNL1        0.1418
     33 C          -3.8646    5.0844   -5.3021 C.2     1  UNL1        0.3155
     34 O          -3.3870    6.3524   -4.9855 O.3     1  UNL1       -0.4802
     35 O          -4.8637    4.9581   -6.0596 O.2     1  UNL1       -0.2504
     36 C          -3.8525    2.3414    1.0324 C.3     1  UNL1        0.1130
     37 O          -5.0322    1.5851    0.9208 O.3     1  UNL1       -0.3864
     38 C          -2.8068    1.5760    1.8778 C.3     1  UNL1        0.1156
     39 O          -1.9476    2.5020    2.4955 O.3     1  UNL1       -0.3863
     40 O          -1.6143   -2.2709    1.1625 O.3     1  UNL1       -0.3457
     41 C          -1.9376   -3.5866    0.7792 C.3     1  UNL1        0.0843
     42 C          -3.4002   -3.8517    1.1144 C.3     1  UNL1        0.1425
     43 O          -3.4761   -4.2803    2.4567 O.3     1  UNL1       -0.3812
     44 C          -4.0109   -4.9029    0.1584 C.3     1  UNL1        0.0778
     45 O          -5.3772   -5.0728    0.4197 O.3     1  UNL1       -0.3920
     46 C          -3.9879   -2.4617    0.9403 C.3     1  UNL1        0.1387
     47 O          -5.0914   -2.2294    1.7786 O.3     1  UNL1       -0.3837
     48 H          -2.9247   -1.2774    2.3966 H       1  UNL1        0.0938
     49 H          -1.1533    0.1944    1.6153 H       1  UNL1        0.0687
     50 H          -1.5278    0.8302   -1.1661 H       1  UNL1        0.1084
     51 H          -0.3523   -1.0527   -0.8652 H       1  UNL1        0.0691
     52 H           1.7922   -3.7874   -1.5045 H       1  UNL1        0.2922
     53 H           6.0414   -2.9251    0.3117 H       1  UNL1        0.0693
     54 H           2.5905    1.7407    0.5433 H       1  UNL1        0.0691
     55 H           6.1255    1.2649    2.1812 H       1  UNL1        0.0626
     56 H           8.3422    2.0627    2.8638 H       1  UNL1        0.0655
     57 H          10.7914    1.8024    2.7680 H       1  UNL1        0.2923
     58 H          10.4220   -2.0036   -0.1442 H       1  UNL1        0.2923
     59 H           7.9876   -1.8589   -0.1518 H       1  UNL1        0.0662
     60 H          -3.6538    1.8403   -1.0900 H       1  UNL1        0.0658
     61 H          -3.5050    4.7959   -0.2582 H       1  UNL1        0.0724
     62 H          -4.9576    3.9711   -0.9239 H       1  UNL1        0.0724
     63 H          -2.1324    4.0629   -4.5754 H       1  UNL1        0.0493
     64 H          -3.3387    3.0059   -5.3865 H       1  UNL1        0.0493
     65 H          -3.8233    7.1823   -5.3689 H       1  UNL1        0.2951
     66 H          -4.0832    3.3010    1.5551 H       1  UNL1        0.0647
     67 H          -5.5090    1.6623    1.7884 H       1  UNL1        0.2100
     68 H          -3.3392    1.0016    2.6707 H       1  UNL1        0.0648
     69 H          -1.4773    2.0182    3.2241 H       1  UNL1        0.2100
     70 H          -1.2716   -4.3034    1.3062 H       1  UNL1        0.0591
     71 H          -1.7472   -3.6845   -0.3130 H       1  UNL1        0.0591
     72 H          -4.4256   -4.4761    2.6680 H       1  UNL1        0.2105
     73 H          -3.8769   -4.5833   -0.9003 H       1  UNL1        0.0587
     74 H          -3.4825   -5.8725    0.2998 H       1  UNL1        0.0587
     75 H          -5.6965   -5.7626   -0.2184 H       1  UNL1        0.2095
     76 H          -4.2623   -2.2835   -0.1284 H       1  UNL1        0.0675
     77 H          -5.8837   -2.6088    1.3174 H       1  UNL1        0.2101
@<TRIPOS>BOND
     1     1     2    1
     2     2     3    1
     3     3     4    1
     4     4     5    1
     5     5     6    1
     6     6     7   ar
     7     7     8   ar
     8     8     9    1
     9     8    10   ar
    10    10    11   ar
    11    11    12    2
    12    11    13   ar
    13    13    14   ar
    14    14    15   ar
    15    15    16   ar
    16    16    17   ar
    17    14    18    1
    18    18    19   ar
    19    19    20   ar
    20    20    21   ar
    21    21    22    1
    22    21    23   ar
    23    23    24    1
    24    23    25   ar
    25     4    26    1
    26    26    27    1
    27    27    28    1
    28    28    29    1
    29    29    30    1
    30    30    31    2
    31    30    32    1
    32    32    33    1
    33    33    34    1
    34    33    35    2
    35    27    36    1
    36    36    37    1
    37    36    38    1
    38    38    39    1
    39     1    40    1
    40    40    41    1
    41    41    42    1
    42    42    43    1
    43    42    44    1
    44    44    45    1
    45    42    46    1
    46    46    47    1
    47    46     1    1
    48    38     3    1
    49    17     6   ar
    50    25    18   ar
    51    16    10   ar
    52     1    48    1
    53     3    49    1
    54     4    50    1
    55     7    51    1
    56     9    52    1
    57    13    53    1
    58    17    54    1
    59    19    55    1
    60    20    56    1
    61    22    57    1
    62    24    58    1
    63    25    59    1
    64    27    60    1
    65    28    61    1
    66    28    62    1
    67    32    63    1
    68    32    64    1
    69    34    65    1
    70    36    66    1
    71    37    67    1
    72    38    68    1
    73    39    69    1
    74    41    70    1
    75    41    71    1
    76    43    72    1
    77    44    73    1
    78    44    74    1
    79    45    75    1
    80    46    76    1
    81    47    77    1
