@<TRIPOS>MOLECULE
Apigenin 7-O-apiosyl-glucoside
 68 72 0 0 0
SMALL
GASTEIGER

@<TRIPOS>ATOM
      1 O          -2.5405   -6.6829    0.1942 O.3     1  UNL1       -0.3924
      2 C          -1.8516   -5.6214   -0.4073 C.3     1  UNL1        0.0731
      3 C          -2.3148   -4.2799    0.1771 C.3     1  UNL1        0.1140
      4 O          -1.4344   -3.2734   -0.2934 O.3     1  UNL1       -0.3313
      5 C          -1.7114   -2.0364    0.3384 C.3     1  UNL1        0.2312
      6 O          -0.7276   -1.0820   -0.0560 O.3     1  UNL1       -0.4606
      7 C           0.6321   -1.1371    0.2841 C.ar    1  UNL1        0.1310
      8 C           1.1779   -2.1761    1.0593 C.ar    1  UNL1        0.0226
      9 C           2.5444   -2.1917    1.3761 C.ar    1  UNL1        0.1347
     10 O           3.0560   -3.2378    2.1453 O.3     1  UNL1       -0.5058
     11 C           3.3842   -1.1518    0.9149 C.ar    1  UNL1        0.1055
     12 C           4.7660   -1.0978    1.1862 C.ar    1  UNL1        0.1966
     13 O           5.3384   -1.9948    1.8624 O.2     1  UNL1       -0.2869
     14 C           5.5235   -0.0338    0.6947 C.ar    1  UNL1        0.0288
     15 C           4.8958    0.9703   -0.0609 C.ar    1  UNL1        0.1392
     16 O           3.5906    0.8837   -0.3075 O.2     1  UNL1       -0.4544
     17 C           2.8275   -0.1093    0.1382 C.ar    1  UNL1        0.1462
     18 C           1.4648   -0.1117   -0.1693 C.ar    1  UNL1        0.0235
     19 C           5.6502    2.1253   -0.6099 C.ar    1  UNL1        0.0176
     20 C           5.1759    2.7765   -1.7633 C.ar    1  UNL1       -0.0476
     21 C           5.8628    3.8717   -2.2952 C.ar    1  UNL1       -0.0195
     22 C           7.0289    4.3390   -1.6770 C.ar    1  UNL1        0.1169
     23 O           7.7217    5.4293   -2.1982 O.3     1  UNL1       -0.5068
     24 C           7.5014    3.7079   -0.5234 C.ar    1  UNL1       -0.0195
     25 C           6.8179    2.6115    0.0115 C.ar    1  UNL1       -0.0476
     26 C          -3.0928   -1.5220   -0.0947 C.3     1  UNL1        0.1519
     27 O          -3.3616   -0.3045    0.5843 O.3     1  UNL1       -0.3366
     28 C          -3.6169    0.7527   -0.3222 C.3     1  UNL1        0.1885
     29 O          -2.4517    1.0692   -1.0603 O.3     1  UNL1       -0.3457
     30 C          -2.2845    2.4703   -1.0387 C.3     1  UNL1        0.0843
     31 C          -3.5377    3.1202   -0.4558 C.3     1  UNL1        0.1425
     32 O          -4.4357    3.3737   -1.5132 O.3     1  UNL1       -0.3812
     33 C          -3.2117    4.4372    0.2883 C.3     1  UNL1        0.0778
     34 O          -4.3545    4.9243    0.9373 O.3     1  UNL1       -0.3920
     35 C          -4.0712    2.0026    0.4312 C.3     1  UNL1        0.1387
     36 O          -3.5417    2.0513    1.7388 O.3     1  UNL1       -0.3837
     37 C          -4.1622   -2.5563    0.2867 C.3     1  UNL1        0.1155
     38 O          -5.3951   -2.1639   -0.2601 O.3     1  UNL1       -0.3863
     39 C          -3.7707   -3.9523   -0.2390 C.3     1  UNL1        0.1120
     40 O          -4.6454   -4.9153    0.2920 O.3     1  UNL1       -0.3865
     41 H          -2.2030   -7.5102   -0.2377 H       1  UNL1        0.2095
     42 H          -2.0155   -5.6339   -1.5086 H       1  UNL1        0.0584
     43 H          -0.7615   -5.7405   -0.2147 H       1  UNL1        0.0584
     44 H          -2.2485   -4.3620    1.2883 H       1  UNL1        0.0647
     45 H          -1.6829   -2.1317    1.4500 H       1  UNL1        0.1084
     46 H           0.5511   -2.9790    1.4221 H       1  UNL1        0.0691
     47 H           2.4665   -3.9900    2.4824 H       1  UNL1        0.2922
     48 H           6.5894   -0.0126    0.8816 H       1  UNL1        0.0693
     49 H           1.0475    0.6918   -0.7644 H       1  UNL1        0.0691
     50 H           4.2785    2.4310   -2.2618 H       1  UNL1        0.0626
     51 H           5.4875    4.3562   -3.1876 H       1  UNL1        0.0654
     52 H           7.4041    5.9088   -3.0325 H       1  UNL1        0.2921
     53 H           8.3966    4.0723   -0.0355 H       1  UNL1        0.0654
     54 H           7.1938    2.1669    0.9228 H       1  UNL1        0.0626
     55 H          -3.0825   -1.4282   -1.2098 H       1  UNL1        0.0687
     56 H          -4.4281    0.4683   -1.0339 H       1  UNL1        0.0938
     57 H          -1.3865    2.7002   -0.4239 H       1  UNL1        0.0591
     58 H          -2.0884    2.8375   -2.0693 H       1  UNL1        0.0591
     59 H          -5.2799    3.7206   -1.1222 H       1  UNL1        0.2105
     60 H          -2.8538    5.1901   -0.4496 H       1  UNL1        0.0587
     61 H          -2.4015    4.2795    1.0351 H       1  UNL1        0.0587
     62 H          -4.0818    5.7706    1.3781 H       1  UNL1        0.2095
     63 H          -5.1807    2.0314    0.5040 H       1  UNL1        0.0675
     64 H          -2.5570    1.9332    1.6838 H       1  UNL1        0.2101
     65 H          -4.2327   -2.5931    1.4013 H       1  UNL1        0.0648
     66 H          -6.1044   -2.5762    0.2988 H       1  UNL1        0.2100
     67 H          -3.8275   -3.9496   -1.3545 H       1  UNL1        0.0647
     68 H          -5.4452   -4.9356   -0.2957 H       1  UNL1        0.2100
@<TRIPOS>BOND
     1     1     2    1
     2     2     3    1
     3     3     4    1
     4     4     5    1
     5     5     6    1
     6     6     7    1
     7     7     8   ar
     8     8     9   ar
     9     9    10    1
    10     9    11   ar
    11    11    12   ar
    12    12    13    2
    13    12    14   ar
    14    14    15   ar
    15    15    16   ar
    16    16    17   ar
    17    17    18   ar
    18    15    19    1
    19    19    20   ar
    20    20    21   ar
    21    21    22   ar
    22    22    23    1
    23    22    24   ar
    24    24    25   ar
    25     5    26    1
    26    26    27    1
    27    27    28    1
    28    28    29    1
    29    29    30    1
    30    30    31    1
    31    31    32    1
    32    31    33    1
    33    33    34    1
    34    31    35    1
    35    35    36    1
    36    26    37    1
    37    37    38    1
    38    37    39    1
    39    39    40    1
    40    39     3    1
    41    18     7   ar
    42    25    19   ar
    43    35    28    1
    44    17    11   ar
    45     1    41    1
    46     2    42    1
    47     2    43    1
    48     3    44    1
    49     5    45    1
    50     8    46    1
    51    10    47    1
    52    14    48    1
    53    18    49    1
    54    20    50    1
    55    21    51    1
    56    23    52    1
    57    24    53    1
    58    25    54    1
    59    26    55    1
    60    28    56    1
    61    30    57    1
    62    30    58    1
    63    32    59    1
    64    33    60    1
    65    33    61    1
    66    34    62    1
    67    35    63    1
    68    36    64    1
    69    37    65    1
    70    38    66    1
    71    39    67    1
    72    40    68    1
