@<TRIPOS>MOLECULE
7,3',4'-Trihydroxyflavone
 30 32 0 0 0
SMALL
GASTEIGER

@<TRIPOS>ATOM
      1 O           5.2503   -0.4810    1.9080 O.3     1  UNL1       -0.5066
      2 C           4.3352   -0.2784    0.8774 C.ar    1  UNL1        0.1204
      3 C           2.9659   -0.2695    1.1632 C.ar    1  UNL1        0.0229
      4 C           2.0329   -0.0678    0.1403 C.ar    1  UNL1        0.1427
      5 C           2.4730    0.1288   -1.1873 C.ar    1  UNL1        0.0642
      6 C           3.8508    0.1192   -1.4688 C.ar    1  UNL1       -0.0439
      7 C           4.7749   -0.0841   -0.4394 C.ar    1  UNL1       -0.0193
      8 C           1.5050    0.3335   -2.1824 C.ar    1  UNL1        0.1931
      9 O           1.8380    0.5242   -3.3838 O.2     1  UNL1       -0.2870
     10 C           0.1533    0.3305   -1.8347 C.ar    1  UNL1        0.0287
     11 C          -0.2137    0.1185   -0.4933 C.ar    1  UNL1        0.1393
     12 O           0.7344   -0.0629    0.4255 O.2     1  UNL1       -0.4545
     13 C          -1.6350    0.1060   -0.0637 C.ar    1  UNL1        0.0211
     14 C          -2.6691   -0.2809   -0.9366 C.ar    1  UNL1       -0.0059
     15 C          -4.0041   -0.2968   -0.5122 C.ar    1  UNL1        0.1589
     16 O          -4.9760   -0.6934   -1.4332 O.3     1  UNL1       -0.5033
     17 C          -4.3184    0.0779    0.8150 C.ar    1  UNL1        0.1583
     18 O          -5.6255    0.0944    1.3060 O.3     1  UNL1       -0.5033
     19 C          -3.2884    0.4481    1.6852 C.ar    1  UNL1       -0.0159
     20 C          -1.9606    0.4581    1.2553 C.ar    1  UNL1       -0.0474
     21 H           6.2487   -0.4932    1.7348 H       1  UNL1        0.2921
     22 H           2.6273   -0.4199    2.1809 H       1  UNL1        0.0691
     23 H           4.2143    0.2683   -2.4782 H       1  UNL1        0.0627
     24 H           5.8335   -0.0898   -0.6660 H       1  UNL1        0.0654
     25 H          -0.5903    0.5177   -2.5986 H       1  UNL1        0.0693
     26 H          -2.4481   -0.5996   -1.9466 H       1  UNL1        0.0662
     27 H          -5.9625   -0.7486   -1.2249 H       1  UNL1        0.2923
     28 H          -6.4381   -0.1465    0.7570 H       1  UNL1        0.2923
     29 H          -3.5199    0.7322    2.7042 H       1  UNL1        0.0655
     30 H          -1.1878    0.7551    1.9537 H       1  UNL1        0.0626
@<TRIPOS>BOND
     1     1     2    1
     2     2     3   ar
     3     3     4   ar
     4     4     5   ar
     5     5     6   ar
     6     6     7   ar
     7     5     8   ar
     8     8     9    2
     9     8    10   ar
    10    10    11   ar
    11    11    12   ar
    12    11    13    1
    13    13    14   ar
    14    14    15   ar
    15    15    16    1
    16    15    17   ar
    17    17    18    1
    18    17    19   ar
    19    19    20   ar
    20     7     2   ar
    21    20    13   ar
    22    12     4   ar
    23     1    21    1
    24     3    22    1
    25     6    23    1
    26     7    24    1
    27    10    25    1
    28    14    26    1
    29    16    27    1
    30    18    28    1
    31    19    29    1
    32    20    30    1
