@<TRIPOS>MOLECULE
7,4'-Dihydroxyflavone
 29 31 0 0 0
SMALL
GASTEIGER

@<TRIPOS>ATOM
      1 O           5.8453    1.0924    0.1537 O.3     1  UNL1       -0.5068
      2 C           4.5085    0.7008    0.1458 C.ar    1  UNL1        0.1169
      3 C           4.0832   -0.4044    0.8928 C.ar    1  UNL1       -0.0195
      4 C           2.7392   -0.7900    0.8770 C.ar    1  UNL1       -0.0476
      5 C           1.8006   -0.0771    0.1047 C.ar    1  UNL1        0.0176
      6 C           2.2377    1.0396   -0.6310 C.ar    1  UNL1       -0.0476
      7 C           3.5825    1.4210   -0.6132 C.ar    1  UNL1       -0.0195
      8 C           0.3650   -0.4550    0.0750 C.ar    1  UNL1        0.1392
      9 C          -0.0582   -1.7784    0.2953 C.ar    1  UNL1        0.0287
     10 C          -1.4209   -2.0773    0.2545 C.ar    1  UNL1        0.1931
     11 O          -1.8039   -3.2628    0.4506 O.2     1  UNL1       -0.2870
     12 C          -2.3434   -1.0534   -0.0090 C.ar    1  UNL1        0.0642
     13 C          -1.8471    0.2503   -0.2303 C.ar    1  UNL1        0.1427
     14 O          -0.5401    0.4890   -0.1816 O.2     1  UNL1       -0.4545
     15 C          -2.7329    1.2986   -0.5021 C.ar    1  UNL1        0.0229
     16 C          -4.1132    1.0601   -0.5548 C.ar    1  UNL1        0.1204
     17 O          -5.0025    2.0980   -0.8244 O.3     1  UNL1       -0.5066
     18 C          -4.6062   -0.2306   -0.3353 C.ar    1  UNL1       -0.0193
     19 C          -3.7294   -1.2853   -0.0638 C.ar    1  UNL1       -0.0439
     20 H           6.5406    0.5914    0.6946 H       1  UNL1        0.2921
     21 H           4.7920   -0.9616    1.4923 H       1  UNL1        0.0654
     22 H           2.4384   -1.6289    1.4897 H       1  UNL1        0.0626
     23 H           1.5407    1.6120   -1.2307 H       1  UNL1        0.0626
     24 H           3.9053    2.2782   -1.1904 H       1  UNL1        0.0654
     25 H           0.6533   -2.5751    0.4699 H       1  UNL1        0.0693
     26 H          -2.3487    2.2968   -0.6715 H       1  UNL1        0.0691
     27 H          -4.6783    3.0440   -0.9880 H       1  UNL1        0.2921
     28 H          -5.6720   -0.4164   -0.3759 H       1  UNL1        0.0654
     29 H          -4.1355   -2.2757    0.1015 H       1  UNL1        0.0627
@<TRIPOS>BOND
     1     1     2    1
     2     2     3   ar
     3     3     4   ar
     4     4     5   ar
     5     5     6   ar
     6     6     7   ar
     7     5     8    1
     8     8     9   ar
     9     9    10   ar
    10    10    11    2
    11    10    12   ar
    12    12    13   ar
    13    13    14   ar
    14    13    15   ar
    15    15    16   ar
    16    16    17    1
    17    16    18   ar
    18    18    19   ar
    19     7     2   ar
    20    14     8   ar
    21    19    12   ar
    22     1    20    1
    23     3    21    1
    24     4    22    1
    25     6    23    1
    26     7    24    1
    27     9    25    1
    28    15    26    1
    29    17    27    1
    30    18    28    1
    31    19    29    1
