@<TRIPOS>MOLECULE
Geraldone
 33 35 0 0 0
SMALL
GASTEIGER

@<TRIPOS>ATOM
      1 C          -3.7520   -2.2299   -0.8747 C.3     1  UNL1        0.0790
      2 O          -4.2320   -1.1052   -0.1449 O.3     1  UNL1       -0.4914
      3 C          -3.4191   -0.0826    0.3703 C.ar    1  UNL1        0.1619
      4 C          -4.0236    0.9729    1.0755 C.ar    1  UNL1        0.1585
      5 O          -5.4047    1.0152    1.2658 O.3     1  UNL1       -0.5033
      6 C          -3.2387    2.0013    1.6027 C.ar    1  UNL1       -0.0159
      7 C          -1.8535    1.9947    1.4319 C.ar    1  UNL1       -0.0474
      8 C          -1.2283    0.9558    0.7193 C.ar    1  UNL1        0.0211
      9 C          -2.0199   -0.0848    0.2011 C.ar    1  UNL1       -0.0057
     10 C           0.2443    0.9171    0.5315 C.ar    1  UNL1        0.1393
     11 C           1.0180    2.0915    0.4969 C.ar    1  UNL1        0.0287
     12 C           2.3987    1.9967    0.3161 C.ar    1  UNL1        0.1931
     13 O           3.0956    3.0474    0.2835 O.2     1  UNL1       -0.2870
     14 C           2.9891    0.7323    0.1686 C.ar    1  UNL1        0.0642
     15 C           2.1502   -0.4034    0.2039 C.ar    1  UNL1        0.1427
     16 O           0.8395   -0.2654    0.3787 O.2     1  UNL1       -0.4545
     17 C           2.6981   -1.6820    0.0548 C.ar    1  UNL1        0.0229
     18 C           4.0756   -1.8423   -0.1286 C.ar    1  UNL1        0.1204
     19 O           4.6044   -3.1227   -0.2751 O.3     1  UNL1       -0.5066
     20 C           4.9108   -0.7170   -0.1636 C.ar    1  UNL1       -0.0193
     21 C           4.3732    0.5653   -0.0164 C.ar    1  UNL1       -0.0439
     22 H          -3.0543   -2.8233   -0.2467 H       1  UNL1        0.0660
     23 H          -3.2419   -1.8940   -1.8021 H       1  UNL1        0.0660
     24 H          -4.6110   -2.8730   -1.1554 H       1  UNL1        0.0660
     25 H          -6.0217    0.2966    0.9067 H       1  UNL1        0.2923
     26 H          -3.7054    2.8074    2.1547 H       1  UNL1        0.0655
     27 H          -1.2765    2.7915    1.8814 H       1  UNL1        0.0626
     28 H          -1.5426   -0.8881   -0.3439 H       1  UNL1        0.0662
     29 H           0.5609    3.0690    0.5815 H       1  UNL1        0.0693
     30 H           2.0537   -2.5521    0.0817 H       1  UNL1        0.0691
     31 H           5.5974   -3.2734   -0.4095 H       1  UNL1        0.2921
     32 H           5.9775   -0.8354   -0.3054 H       1  UNL1        0.0654
     33 H           5.0382    1.4198   -0.0480 H       1  UNL1        0.0627
@<TRIPOS>BOND
     1     1     2    1
     2     2     3    1
     3     3     4   ar
     4     4     5    1
     5     4     6   ar
     6     6     7   ar
     7     7     8   ar
     8     8     9   ar
     9     8    10    1
    10    10    11   ar
    11    11    12   ar
    12    12    13    2
    13    12    14   ar
    14    14    15   ar
    15    15    16   ar
    16    15    17   ar
    17    17    18   ar
    18    18    19    1
    19    18    20   ar
    20    20    21   ar
    21     9     3   ar
    22    16    10   ar
    23    21    14   ar
    24     1    22    1
    25     1    23    1
    26     1    24    1
    27     5    25    1
    28     6    26    1
    29     7    27    1
    30     9    28    1
    31    11    29    1
    32    17    30    1
    33    19    31    1
    34    20    32    1
    35    21    33    1
