@<TRIPOS>MOLECULE
Baicalein
 30 32 0 0 0
SMALL
GASTEIGER

@<TRIPOS>ATOM
      1 O          -4.2950    2.4708   -0.2312 O.3     1  UNL1       -0.5031
      2 C          -3.4731    1.3462   -0.1685 C.ar    1  UNL1        0.1655
      3 C          -4.0380    0.0662   -0.0970 C.ar    1  UNL1        0.2015
      4 O          -5.4251   -0.0937   -0.0878 O.3     1  UNL1       -0.5009
      5 C          -3.2222   -1.0760   -0.0333 C.ar    1  UNL1        0.1766
      6 O          -3.8909   -2.3045    0.0354 O.3     1  UNL1       -0.5027
      7 C          -1.7982   -0.9316   -0.0416 C.ar    1  UNL1        0.1091
      8 C          -0.8686   -1.9993    0.0179 C.ar    1  UNL1        0.1967
      9 O          -1.2319   -3.2009    0.0851 O.2     1  UNL1       -0.2869
     10 C           0.5021   -1.7341    0.0029 C.ar    1  UNL1        0.0288
     11 C           0.9570   -0.4078   -0.0712 C.ar    1  UNL1        0.1392
     12 O           0.0605    0.5721   -0.1258 O.2     1  UNL1       -0.4544
     13 C          -1.2533    0.3768   -0.1147 C.ar    1  UNL1        0.1465
     14 C          -2.0870    1.4931   -0.1769 C.ar    1  UNL1        0.0268
     15 C           2.4069   -0.0409   -0.0919 C.ar    1  UNL1        0.0174
     16 C           2.7666    1.3216   -0.1681 C.ar    1  UNL1       -0.0511
     17 C           4.1093    1.7093   -0.1899 C.ar    1  UNL1       -0.0611
     18 C           5.1171    0.7473   -0.1364 C.ar    1  UNL1       -0.0617
     19 C           4.7842   -0.6048   -0.0608 C.ar    1  UNL1       -0.0611
     20 C           3.4431   -1.0013   -0.0385 C.ar    1  UNL1       -0.0511
     21 H          -3.9117    3.4074   -0.2836 H       1  UNL1        0.2923
     22 H          -6.0613    0.6934   -0.1317 H       1  UNL1        0.2924
     23 H          -3.4680   -3.2160    0.0861 H       1  UNL1        0.2923
     24 H           1.1815   -2.5711    0.0496 H       1  UNL1        0.0693
     25 H          -1.6511    2.4833   -0.2323 H       1  UNL1        0.0692
     26 H           2.0103    2.0952   -0.2112 H       1  UNL1        0.0625
     27 H           4.3679    2.7588   -0.2486 H       1  UNL1        0.0618
     28 H           6.1562    1.0496   -0.1534 H       1  UNL1        0.0618
     29 H           5.5682   -1.3502   -0.0193 H       1  UNL1        0.0618
     30 H           3.2444   -2.0590    0.0206 H       1  UNL1        0.0625
@<TRIPOS>BOND
     1     1     2    1
     2     2     3   ar
     3     3     4    1
     4     3     5   ar
     5     5     6    1
     6     5     7   ar
     7     7     8   ar
     8     8     9    2
     9     8    10   ar
    10    10    11   ar
    11    11    12   ar
    12    12    13   ar
    13    13    14   ar
    14    11    15    1
    15    15    16   ar
    16    16    17   ar
    17    17    18   ar
    18    18    19   ar
    19    19    20   ar
    20    14     2   ar
    21    20    15   ar
    22    13     7   ar
    23     1    21    1
    24     4    22    1
    25     6    23    1
    26    10    24    1
    27    14    25    1
    28    16    26    1
    29    17    27    1
    30    18    28    1
    31    19    29    1
    32    20    30    1
