@<TRIPOS>MOLECULE
Apigenin 6-C-glucoside
 51 54 0 0 0
SMALL
GASTEIGER

@<TRIPOS>ATOM
      1 C          -2.6757   -0.3154    0.2043 C.3     1  UNL1        0.1193
      2 O          -3.1983   -0.8233   -1.0134 O.3     1  UNL1       -0.3609
      3 C          -4.5869   -1.0948   -0.9039 C.3     1  UNL1        0.1108
      4 C          -5.0306   -1.7946   -2.1997 C.3     1  UNL1        0.0729
      5 O          -6.3469   -2.2684   -2.0991 O.3     1  UNL1       -0.3924
      6 C          -5.3753    0.2183   -0.6723 C.3     1  UNL1        0.1117
      7 O          -6.7419   -0.0653   -0.5128 O.3     1  UNL1       -0.3865
      8 C          -4.8464    0.9214    0.5944 C.3     1  UNL1        0.1121
      9 O          -5.4524    2.1789    0.7657 O.3     1  UNL1       -0.3865
     10 C          -3.3118    1.0563    0.5358 C.3     1  UNL1        0.1139
     11 O          -2.8126    1.5715    1.7460 O.3     1  UNL1       -0.3862
     12 C          -1.1615   -0.1771    0.0853 C.ar    1  UNL1        0.0673
     13 C          -0.3154   -0.5943    1.1445 C.ar    1  UNL1        0.1404
     14 O          -0.9087   -1.2239    2.2448 O.3     1  UNL1       -0.5054
     15 C           1.0938   -0.3904    1.0523 C.ar    1  UNL1        0.1058
     16 C           1.6300    0.1394   -0.1465 C.ar    1  UNL1        0.1463
     17 O           2.9407    0.3002   -0.2969 O.2     1  UNL1       -0.4544
     18 C           3.8281    0.0058    0.6472 C.ar    1  UNL1        0.1392
     19 C           3.3778   -0.4625    1.8885 C.ar    1  UNL1        0.0288
     20 C           2.0107   -0.6417    2.1024 C.ar    1  UNL1        0.1966
     21 O           1.6307   -0.9873    3.2514 O.2     1  UNL1       -0.2869
     22 C           5.2707    0.2125    0.3627 C.ar    1  UNL1        0.0176
     23 C           5.6575    1.1578   -0.6049 C.ar    1  UNL1       -0.0476
     24 C           7.0089    1.3645   -0.8968 C.ar    1  UNL1       -0.0195
     25 C           7.9931    0.6254   -0.2356 C.ar    1  UNL1        0.1169
     26 O           9.3357    0.8424   -0.5366 O.3     1  UNL1       -0.5068
     27 C           7.6200   -0.3278    0.7198 C.ar    1  UNL1       -0.0195
     28 C           6.2695   -0.5371    1.0156 C.ar    1  UNL1       -0.0476
     29 C           0.7904    0.5181   -1.1897 C.ar    1  UNL1        0.0235
     30 C          -0.5937    0.3934   -1.0741 C.ar    1  UNL1        0.1296
     31 O          -1.4081    0.8341   -2.1185 O.3     1  UNL1       -0.5062
     32 H          -2.9190   -1.0306    1.0222 H       1  UNL1        0.0676
     33 H          -4.7755   -1.8016   -0.0615 H       1  UNL1        0.0646
     34 H          -4.9674   -1.0856   -3.0528 H       1  UNL1        0.0584
     35 H          -4.3420   -2.6417   -2.4226 H       1  UNL1        0.0584
     36 H          -6.3153   -3.0767   -1.5235 H       1  UNL1        0.2095
     37 H          -5.2206    0.8816   -1.5569 H       1  UNL1        0.0647
     38 H          -7.2349    0.7735   -0.7099 H       1  UNL1        0.2100
     39 H          -5.1137    0.2939    1.4741 H       1  UNL1        0.0647
     40 H          -5.2274    2.7332   -0.0269 H       1  UNL1        0.2100
     41 H          -3.0539    1.7744   -0.2731 H       1  UNL1        0.0649
     42 H          -3.0231    0.9170    2.4625 H       1  UNL1        0.2100
     43 H          -0.4326   -1.8663    2.8605 H       1  UNL1        0.2922
     44 H           4.0694   -0.6458    2.7011 H       1  UNL1        0.0693
     45 H           4.9144    1.7466   -1.1286 H       1  UNL1        0.0626
     46 H           7.2915    2.1007   -1.6387 H       1  UNL1        0.0654
     47 H          10.0727    0.3219   -0.0753 H       1  UNL1        0.2921
     48 H           8.3755   -0.9125    1.2292 H       1  UNL1        0.0654
     49 H           6.0138   -1.3023    1.7359 H       1  UNL1        0.0626
     50 H           1.2189    0.9378   -2.0918 H       1  UNL1        0.0691
     51 H          -1.0218    1.2461   -2.9598 H       1  UNL1        0.2922
@<TRIPOS>BOND
     1     1     2    1
     2     2     3    1
     3     3     4    1
     4     4     5    1
     5     3     6    1
     6     6     7    1
     7     6     8    1
     8     8     9    1
     9     8    10    1
    10    10    11    1
    11     1    12    1
    12    12    13   ar
    13    13    14    1
    14    13    15   ar
    15    15    16   ar
    16    16    17   ar
    17    17    18   ar
    18    18    19   ar
    19    19    20   ar
    20    20    21    2
    21    18    22    1
    22    22    23   ar
    23    23    24   ar
    24    24    25   ar
    25    25    26    1
    26    25    27   ar
    27    27    28   ar
    28    16    29   ar
    29    29    30   ar
    30    30    31    1
    31    10     1    1
    32    30    12   ar
    33    20    15   ar
    34    28    22   ar
    35     1    32    1
    36     3    33    1
    37     4    34    1
    38     4    35    1
    39     5    36    1
    40     6    37    1
    41     7    38    1
    42     8    39    1
    43     9    40    1
    44    10    41    1
    45    11    42    1
    46    14    43    1
    47    19    44    1
    48    23    45    1
    49    24    46    1
    50    26    47    1
    51    27    48    1
    52    28    49    1
    53    29    50    1
    54    31    51    1
