@<TRIPOS>MOLECULE
Hispidulin
 34 36 0 0 0
SMALL
GASTEIGER

@<TRIPOS>ATOM
      1 C          -5.9480   -0.5705   -0.1002 C.3     1  UNL1        0.0791
      2 O          -5.0647    0.4980    0.2226 O.3     1  UNL1       -0.4885
      3 C          -3.6569    0.4515    0.2398 C.ar    1  UNL1        0.2040
      4 C          -2.9012   -0.7358    0.0433 C.ar    1  UNL1        0.1768
      5 O          -3.5805   -1.9526   -0.0529 O.3     1  UNL1       -0.5027
      6 C          -1.4759   -0.6627   -0.0056 C.ar    1  UNL1        0.1091
      7 C          -0.8443    0.5747    0.2719 C.ar    1  UNL1        0.1465
      8 O           0.4807    0.6784    0.2852 O.2     1  UNL1       -0.4544
      9 C           1.2977   -0.3348    0.0174 C.ar    1  UNL1        0.1392
     10 C           0.7554   -1.5846   -0.3106 C.ar    1  UNL1        0.0288
     11 C          -0.6301   -1.7463   -0.3476 C.ar    1  UNL1        0.1967
     12 O          -1.0880   -2.8568   -0.7235 O.2     1  UNL1       -0.2869
     13 C           2.7634   -0.1047    0.0771 C.ar    1  UNL1        0.0176
     14 C           3.6655   -0.8576   -0.7010 C.ar    1  UNL1       -0.0476
     15 C           5.0400   -0.6107   -0.6300 C.ar    1  UNL1       -0.0195
     16 C           5.5339    0.3919    0.2086 C.ar    1  UNL1        0.1169
     17 O           6.9060    0.6249    0.2690 O.3     1  UNL1       -0.5068
     18 C           4.6453    1.1541    0.9764 C.ar    1  UNL1       -0.0195
     19 C           3.2703    0.9113    0.9078 C.ar    1  UNL1       -0.0476
     20 C          -1.6033    1.7135    0.5256 C.ar    1  UNL1        0.0268
     21 C          -2.9959    1.6610    0.4868 C.ar    1  UNL1        0.1657
     22 O          -3.7424    2.8191    0.7018 O.3     1  UNL1       -0.5031
     23 H          -5.8938   -1.3623    0.6758 H       1  UNL1        0.0660
     24 H          -5.7093   -0.9785   -1.1050 H       1  UNL1        0.0660
     25 H          -6.9867   -0.1820   -0.1210 H       1  UNL1        0.0660
     26 H          -3.1804   -2.8484    0.1849 H       1  UNL1        0.2923
     27 H           1.3923   -2.4321   -0.5292 H       1  UNL1        0.0693
     28 H           3.3156   -1.6194   -1.3842 H       1  UNL1        0.0626
     29 H           5.7223   -1.1954   -1.2341 H       1  UNL1        0.0654
     30 H           7.2949    1.3452    0.8663 H       1  UNL1        0.2921
     31 H           5.0185    1.9351    1.6267 H       1  UNL1        0.0654
     32 H           2.6032    1.5113    1.5145 H       1  UNL1        0.0626
     33 H          -1.1051    2.6536    0.7295 H       1  UNL1        0.0692
     34 H          -3.2988    3.7117    0.8853 H       1  UNL1        0.2923
@<TRIPOS>BOND
     1     1     2    1
     2     2     3    1
     3     3     4   ar
     4     4     5    1
     5     4     6   ar
     6     6     7   ar
     7     7     8   ar
     8     8     9   ar
     9     9    10   ar
    10    10    11   ar
    11    11    12    2
    12     9    13    1
    13    13    14   ar
    14    14    15   ar
    15    15    16   ar
    16    16    17    1
    17    16    18   ar
    18    18    19   ar
    19     7    20   ar
    20    20    21   ar
    21    21    22    1
    22    21     3   ar
    23    11     6   ar
    24    19    13   ar
    25     1    23    1
    26     1    24    1
    27     1    25    1
    28     5    26    1
    29    10    27    1
    30    14    28    1
    31    15    29    1
    32    17    30    1
    33    18    31    1
    34    19    32    1
    35    20    33    1
    36    22    34    1
