@<TRIPOS>MOLECULE
Cirsimaritin
 37 39 0 0 0
SMALL
GASTEIGER

@<TRIPOS>ATOM
      1 C          -3.5872    3.1278    1.4664 C.3     1  UNL1        0.0790
      2 O          -3.8922    1.8261    0.9759 O.3     1  UNL1       -0.4912
      3 C          -2.9349    0.8572    0.6316 C.ar    1  UNL1        0.1687
      4 C          -3.3877   -0.3837    0.1616 C.ar    1  UNL1        0.2043
      5 O          -4.7845   -0.5465    0.0732 O.3     1  UNL1       -0.4885
      6 C          -5.4800   -1.6642   -0.4684 C.3     1  UNL1        0.0791
      7 C          -2.4528   -1.3986   -0.1766 C.ar    1  UNL1        0.1768
      8 O          -2.9319   -2.6716   -0.4949 O.3     1  UNL1       -0.5027
      9 C          -1.0567   -1.1106   -0.1384 C.ar    1  UNL1        0.1091
     10 C          -0.0472   -1.9834   -0.6127 C.ar    1  UNL1        0.1967
     11 O          -0.3215   -3.0596   -1.2055 O.2     1  UNL1       -0.2869
     12 C           1.2961   -1.6331   -0.4716 C.ar    1  UNL1        0.0288
     13 C           1.6321   -0.3987    0.0999 C.ar    1  UNL1        0.1392
     14 O           0.6626    0.4310    0.4709 O.2     1  UNL1       -0.4544
     15 C          -0.6304    0.1413    0.3660 C.ar    1  UNL1        0.1465
     16 C          -1.5606    1.1015    0.7536 C.ar    1  UNL1        0.0270
     17 C           3.0439    0.0258    0.2772 C.ar    1  UNL1        0.0176
     18 C           3.3556    1.3972    0.3140 C.ar    1  UNL1       -0.0476
     19 C           4.6759    1.8221    0.4885 C.ar    1  UNL1       -0.0195
     20 C           5.7026    0.8863    0.6384 C.ar    1  UNL1        0.1169
     21 O           7.0136    1.3244    0.8112 O.3     1  UNL1       -0.5068
     22 C           5.4032   -0.4813    0.6170 C.ar    1  UNL1       -0.0195
     23 C           4.0840   -0.9107    0.4417 C.ar    1  UNL1       -0.0476
     24 H          -3.0281    3.0543    2.4230 H       1  UNL1        0.0660
     25 H          -2.9912    3.6889    0.7159 H       1  UNL1        0.0660
     26 H          -4.5335    3.6766    1.6501 H       1  UNL1        0.0660
     27 H          -5.3313   -2.5577    0.1732 H       1  UNL1        0.0660
     28 H          -5.1460   -1.8593   -1.5093 H       1  UNL1        0.0660
     29 H          -6.5649   -1.4345   -0.4890 H       1  UNL1        0.0660
     30 H          -2.4018   -3.5233   -0.3801 H       1  UNL1        0.2923
     31 H           2.0600   -2.3014   -0.8483 H       1  UNL1        0.0693
     32 H          -1.1987    2.0496    1.1285 H       1  UNL1        0.0692
     33 H           2.5787    2.1427    0.1960 H       1  UNL1        0.0626
     34 H           4.9013    2.8809    0.5073 H       1  UNL1        0.0654
     35 H           7.7798    0.6708    0.9237 H       1  UNL1        0.2921
     36 H           6.1910   -1.2131    0.7432 H       1  UNL1        0.0654
     37 H           3.8826   -1.9731    0.4609 H       1  UNL1        0.0626
@<TRIPOS>BOND
     1     1     2    1
     2     2     3    1
     3     3     4   ar
     4     4     5    1
     5     5     6    1
     6     4     7   ar
     7     7     8    1
     8     7     9   ar
     9     9    10   ar
    10    10    11    2
    11    10    12   ar
    12    12    13   ar
    13    13    14   ar
    14    14    15   ar
    15    15    16   ar
    16    13    17    1
    17    17    18   ar
    18    18    19   ar
    19    19    20   ar
    20    20    21    1
    21    20    22   ar
    22    22    23   ar
    23    16     3   ar
    24    23    17   ar
    25    15     9   ar
    26     1    24    1
    27     1    25    1
    28     1    26    1
    29     6    27    1
    30     6    28    1
    31     6    29    1
    32     8    30    1
    33    12    31    1
    34    16    32    1
    35    18    33    1
    36    19    34    1
    37    21    35    1
    38    22    36    1
    39    23    37    1
