@<TRIPOS>MOLECULE
5,6-Dihydroxy-7,8,3',4'-tetramethoxyflavone
 45 47 0 0 0
SMALL
GASTEIGER

@<TRIPOS>ATOM
      1 C           6.0352   -0.1462   -2.4620 C.3     1  UNL1        0.0790
      2 O           5.6295   -0.1078   -1.0976 O.3     1  UNL1       -0.4915
      3 C           4.2967   -0.1790   -0.6618 C.ar    1  UNL1        0.1615
      4 C           4.0419   -0.1285    0.7164 C.ar    1  UNL1        0.1622
      5 O           5.1343   -0.0020    1.5898 O.3     1  UNL1       -0.4914
      6 C           5.0325    0.0584    3.0088 C.3     1  UNL1        0.0790
      7 C           2.7146   -0.2011    1.1839 C.ar    1  UNL1       -0.0056
      8 C           1.6397   -0.3334    0.2845 C.ar    1  UNL1        0.0211
      9 C           1.9103   -0.3658   -1.0916 C.ar    1  UNL1       -0.0474
     10 C           3.2223   -0.2948   -1.5616 C.ar    1  UNL1       -0.0156
     11 C           0.2334   -0.4011    0.7592 C.ar    1  UNL1        0.1395
     12 C          -0.0939   -0.9340    2.0116 C.ar    1  UNL1        0.0288
     13 C          -1.4238   -0.9455    2.4278 C.ar    1  UNL1        0.1969
     14 O          -1.6964   -1.4939    3.5273 O.2     1  UNL1       -0.2869
     15 C          -2.4259   -0.3853    1.5995 C.ar    1  UNL1        0.1128
     16 C          -2.0246    0.0518    0.3112 C.ar    1  UNL1        0.1881
     17 O          -0.7386    0.0383   -0.0343 O.2     1  UNL1       -0.4507
     18 C          -2.9724    0.5161   -0.6174 C.ar    1  UNL1        0.2088
     19 O          -2.5545    0.8869   -1.8985 O.3     1  UNL1       -0.4884
     20 C          -2.0626   -0.0625   -2.8388 C.3     1  UNL1        0.0791
     21 C          -4.3331    0.6107   -0.2493 C.ar    1  UNL1        0.2108
     22 O          -5.3439    1.0965   -1.1013 O.3     1  UNL1       -0.4883
     23 C          -5.1682    1.6412   -2.4043 C.3     1  UNL1        0.0791
     24 C          -4.7292    0.2091    1.0315 C.ar    1  UNL1        0.2055
     25 O          -6.0817    0.3074    1.3682 O.3     1  UNL1       -0.5008
     26 C          -3.7938   -0.2617    1.9696 C.ar    1  UNL1        0.1768
     27 O          -4.2669   -0.5493    3.2544 O.3     1  UNL1       -0.5027
     28 H           5.5963    0.7109   -3.0151 H       1  UNL1        0.0660
     29 H           5.7202   -1.1041   -2.9273 H       1  UNL1        0.0660
     30 H           7.1408   -0.0731   -2.5134 H       1  UNL1        0.0660
     31 H           4.5624   -0.8694    3.3981 H       1  UNL1        0.0660
     32 H           4.4376    0.9459    3.3116 H       1  UNL1        0.0660
     33 H           6.0498    0.1492    3.4414 H       1  UNL1        0.0660
     34 H           2.5182   -0.1280    2.2435 H       1  UNL1        0.0662
     35 H           1.1069   -0.4592   -1.8090 H       1  UNL1        0.0626
     36 H           3.3902   -0.3317   -2.6293 H       1  UNL1        0.0655
     37 H           0.6651   -1.3703    2.6491 H       1  UNL1        0.0693
     38 H          -2.8479   -0.8162   -3.0583 H       1  UNL1        0.0660
     39 H          -1.7957    0.4618   -3.7789 H       1  UNL1        0.0660
     40 H          -1.1641   -0.5786   -2.4495 H       1  UNL1        0.0660
     41 H          -4.4683    2.5025   -2.3719 H       1  UNL1        0.0660
     42 H          -4.8077    0.8589   -3.1030 H       1  UNL1        0.0660
     43 H          -6.1483    2.0054   -2.7745 H       1  UNL1        0.0660
     44 H          -6.4408    0.0350    2.2751 H       1  UNL1        0.2924
     45 H          -3.6956   -0.5633    4.0860 H       1  UNL1        0.2923
@<TRIPOS>BOND
     1     1     2    1
     2     2     3    1
     3     3     4   ar
     4     4     5    1
     5     5     6    1
     6     4     7   ar
     7     7     8   ar
     8     8     9   ar
     9     9    10   ar
    10     8    11    1
    11    11    12   ar
    12    12    13   ar
    13    13    14    2
    14    13    15   ar
    15    15    16   ar
    16    16    17   ar
    17    16    18   ar
    18    18    19    1
    19    19    20    1
    20    18    21   ar
    21    21    22    1
    22    22    23    1
    23    21    24   ar
    24    24    25    1
    25    24    26   ar
    26    26    27    1
    27    10     3   ar
    28    17    11   ar
    29    26    15   ar
    30     1    28    1
    31     1    29    1
    32     1    30    1
    33     6    31    1
    34     6    32    1
    35     6    33    1
    36     7    34    1
    37     9    35    1
    38    10    36    1
    39    12    37    1
    40    20    38    1
    41    20    39    1
    42    20    40    1
    43    23    41    1
    44    23    42    1
    45    23    43    1
    46    25    44    1
    47    27    45    1
