@<TRIPOS>MOLECULE
Cyanidin 3-O-glucosyl-rutinoside
 94 99 0 0 0
SMALL
GASTEIGER

@<TRIPOS>ATOM
      1 C           5.2061   -0.9397    4.7841 C.3     1  UNL1       -0.0361
      2 C           5.1360   -0.6972    3.2760 C.3     1  UNL1        0.0873
      3 O           3.7676   -0.7195    2.8907 O.3     1  UNL1       -0.3431
      4 C           3.6470   -0.7070    1.4793 C.3     1  UNL1        0.1879
      5 O           2.3086   -0.4265    1.1176 O.3     1  UNL1       -0.3461
      6 C           2.0019    0.9293    1.3767 C.3     1  UNL1        0.0796
      7 C           0.5525    1.1971    0.9659 C.3     1  UNL1        0.1144
      8 O           0.4267    1.0008   -0.4294 O.3     1  UNL1       -0.3313
      9 C          -0.9436    0.8852   -0.7893 C.3     1  UNL1        0.2316
     10 O          -1.0554    0.8902   -2.2152 O.3     1  UNL1       -0.4514
     11 C          -0.1800    0.2179   -3.0834 C.ar    1  UNL1        0.2288
     12 C           0.3301    0.9248   -4.1733 C.ar    1  UNL1        0.0093
     13 C           1.2913    0.3389   -5.0128 C.ar    1  UNL1        0.1241
     14 C           1.8747    1.0109   -6.1181 C.ar    1  UNL1        0.1366
     15 O           1.5251    2.3112   -6.4935 O.3     1  UNL1       -0.5057
     16 C           2.8482    0.3579   -6.8842 C.ar    1  UNL1        0.0225
     17 C           3.2482   -0.9448   -6.5782 C.ar    1  UNL1        0.1293
     18 O           4.2195   -1.5665   -7.3598 O.3     1  UNL1       -0.5063
     19 C           2.6715   -1.6133   -5.4942 C.ar    1  UNL1        0.0847
     20 C           1.6990   -0.9828   -4.7139 C.ar    1  UNL1        0.3708
     21 O           1.1579   -1.6433   -3.6963 O.2     1  UNL1       -0.1997
     22 C           0.2324   -1.1207   -2.8979 C.ar    1  UNL1        0.4046
     23 C          -0.3466   -1.9901   -1.8618 C.ar    1  UNL1        0.0865
     24 C           0.4913   -2.6157   -0.9302 C.ar    1  UNL1       -0.0418
     25 C          -0.0513   -3.4235    0.0719 C.ar    1  UNL1       -0.0157
     26 C          -1.4333   -3.6314    0.1411 C.ar    1  UNL1        0.1583
     27 O          -1.9478   -4.4353    1.1576 O.3     1  UNL1       -0.5033
     28 C          -2.2781   -3.0330   -0.8102 C.ar    1  UNL1        0.1591
     29 O          -3.6546   -3.2444   -0.7538 O.3     1  UNL1       -0.5033
     30 C          -1.7307   -2.2220   -1.8147 C.ar    1  UNL1       -0.0003
     31 C          -1.8186    2.0387   -0.2113 C.3     1  UNL1        0.1519
     32 O          -2.6040    1.5487    0.8637 O.3     1  UNL1       -0.3366
     33 C          -3.8593    1.0666    0.4138 C.3     1  UNL1        0.1886
     34 O          -4.7437    2.1486    0.1518 O.3     1  UNL1       -0.3405
     35 C          -5.3401    2.7543    1.3006 C.3     1  UNL1        0.1130
     36 C          -6.8676    2.5858    1.2067 C.3     1  UNL1        0.0730
     37 O          -7.5155    3.5063    2.0412 O.3     1  UNL1       -0.3924
     38 C          -4.7594    2.3014    2.6762 C.3     1  UNL1        0.1119
     39 O          -5.4833    2.8521    3.7480 O.3     1  UNL1       -0.3865
     40 C          -4.6910    0.7611    2.8051 C.3     1  UNL1        0.1141
     41 O          -5.8656    0.2520    3.3912 O.3     1  UNL1       -0.3864
     42 C          -4.4385    0.0748    1.4404 C.3     1  UNL1        0.1341
     43 O          -5.6315   -0.4749    0.9374 O.3     1  UNL1       -0.3841
     44 C          -0.9262    3.1775    0.3223 C.3     1  UNL1        0.1155
     45 O          -0.2512    3.7924   -0.7472 O.3     1  UNL1       -0.3863
     46 C           0.1142    2.6378    1.3364 C.3     1  UNL1        0.1120
     47 O          -0.4311    2.6301    2.6318 O.3     1  UNL1       -0.3865
     48 C           4.0210   -2.1038    0.9328 C.3     1  UNL1        0.1341
     49 O           4.3973   -2.0237   -0.4209 O.3     1  UNL1       -0.3841
     50 C           5.1123   -2.7835    1.8060 C.3     1  UNL1        0.1140
     51 O           5.9012   -3.6618    1.0446 O.3     1  UNL1       -0.3864
     52 C           6.0076   -1.7462    2.5064 C.3     1  UNL1        0.1095
     53 O           6.8087   -1.0976    1.5512 O.3     1  UNL1       -0.3866
     54 H           6.2543   -0.8500    5.1413 H       1  UNL1        0.0255
     55 H           4.8211   -1.9526    5.0298 H       1  UNL1        0.0255
     56 H           4.5893   -0.1848    5.3168 H       1  UNL1        0.0255
     57 H           5.5394    0.3269    3.1019 H       1  UNL1        0.0621
     58 H           4.3323    0.0537    1.0259 H       1  UNL1        0.0937
     59 H           2.6683    1.6033    0.7905 H       1  UNL1        0.0587
     60 H           2.1108    1.1541    2.4623 H       1  UNL1        0.0587
     61 H          -0.0785    0.4599    1.5211 H       1  UNL1        0.0647
     62 H          -1.3358   -0.0766   -0.4046 H       1  UNL1        0.1084
     63 H          -0.0077    1.9400   -4.3112 H       1  UNL1        0.0667
     64 H           0.8212    2.8682   -6.0315 H       1  UNL1        0.2922
     65 H           3.2972    0.8685   -7.7272 H       1  UNL1        0.0691
     66 H           4.5318   -2.5107   -7.1652 H       1  UNL1        0.2921
     67 H           2.9776   -2.6249   -5.2575 H       1  UNL1        0.0749
     68 H           1.5618   -2.4600   -0.9689 H       1  UNL1        0.0628
     69 H           0.6035   -3.8875    0.7986 H       1  UNL1        0.0655
     70 H          -2.9405   -4.6138    1.2516 H       1  UNL1        0.2923
     71 H          -4.2834   -2.8253   -1.4290 H       1  UNL1        0.2923
     72 H          -2.3827   -1.7576   -2.5448 H       1  UNL1        0.0664
     73 H          -2.4563    2.4780   -1.0173 H       1  UNL1        0.0687
     74 H          -3.7382    0.4912   -0.5345 H       1  UNL1        0.0938
     75 H          -5.1364    3.8447    1.2163 H       1  UNL1        0.0647
     76 H          -7.1866    2.7678    0.1557 H       1  UNL1        0.0584
     77 H          -7.1652    1.5516    1.4809 H       1  UNL1        0.0584
     78 H          -8.4877    3.3338    1.9407 H       1  UNL1        0.2095
     79 H          -3.7143    2.6862    2.7398 H       1  UNL1        0.0647
     80 H          -5.2762    3.8232    3.7671 H       1  UNL1        0.2100
     81 H          -3.8213    0.5215    3.4643 H       1  UNL1        0.0648
     82 H          -5.7626    0.3341    4.3755 H       1  UNL1        0.2100
     83 H          -3.6986   -0.7467    1.5968 H       1  UNL1        0.0671
     84 H          -5.3760   -1.1458    0.2519 H       1  UNL1        0.2101
     85 H          -1.5686    3.9366    0.8289 H       1  UNL1        0.0648
     86 H          -0.9134    4.3638   -1.2173 H       1  UNL1        0.2100
     87 H           1.0017    3.3154    1.3178 H       1  UNL1        0.0647
     88 H          -0.4268    3.5696    2.9530 H       1  UNL1        0.2100
     89 H           3.1202   -2.7543    0.9860 H       1  UNL1        0.0671
     90 H           5.2323   -1.4906   -0.4729 H       1  UNL1        0.2101
     91 H           4.6030   -3.3638    2.6125 H       1  UNL1        0.0648
     92 H           5.3245   -4.4376    0.8176 H       1  UNL1        0.2100
     93 H           6.6736   -2.3019    3.2094 H       1  UNL1        0.0646
     94 H           7.5432   -0.6520    2.0491 H       1  UNL1        0.2100
@<TRIPOS>UNITY_ATOM_ATTR
21 1
charge 1
@<TRIPOS>BOND
     1     1     2    1
     2     2     3    1
     3     3     4    1
     4     4     5    1
     5     5     6    1
     6     6     7    1
     7     7     8    1
     8     8     9    1
     9     9    10    1
    10    10    11    1
    11    11    12   ar
    12    12    13   ar
    13    13    14   ar
    14    14    15    1
    15    14    16   ar
    16    16    17   ar
    17    17    18    1
    18    17    19   ar
    19    19    20   ar
    20    20    21   ar
    21    21    22   ar
    22    22    23    1
    23    23    24   ar
    24    24    25   ar
    25    25    26   ar
    26    26    27    1
    27    26    28   ar
    28    28    29    1
    29    28    30   ar
    30     9    31    1
    31    31    32    1
    32    32    33    1
    33    33    34    1
    34    34    35    1
    35    35    36    1
    36    36    37    1
    37    35    38    1
    38    38    39    1
    39    38    40    1
    40    40    41    1
    41    40    42    1
    42    42    43    1
    43    31    44    1
    44    44    45    1
    45    44    46    1
    46    46    47    1
    47     4    48    1
    48    48    49    1
    49    48    50    1
    50    50    51    1
    51    50    52    1
    52    52    53    1
    53    52     2    1
    54    46     7    1
    55    22    11   ar
    56    30    23   ar
    57    42    33    1
    58    20    13   ar
    59     1    54    1
    60     1    55    1
    61     1    56    1
    62     2    57    1
    63     4    58    1
    64     6    59    1
    65     6    60    1
    66     7    61    1
    67     9    62    1
    68    12    63    1
    69    15    64    1
    70    16    65    1
    71    18    66    1
    72    19    67    1
    73    24    68    1
    74    25    69    1
    75    27    70    1
    76    29    71    1
    77    30    72    1
    78    31    73    1
    79    33    74    1
    80    35    75    1
    81    36    76    1
    82    36    77    1
    83    37    78    1
    84    38    79    1
    85    39    80    1
    86    40    81    1
    87    41    82    1
    88    42    83    1
    89    43    84    1
    90    44    85    1
    91    45    86    1
    92    46    87    1
    93    47    88    1
    94    48    89    1
    95    49    90    1
    96    50    91    1
    97    51    92    1
    98    52    93    1
    99    53    94    1
