@<TRIPOS>MOLECULE
Pebrellin
 41 43 0 0 0
SMALL
GASTEIGER

@<TRIPOS>ATOM
      1 C           6.6559    0.9039   -1.1857 C.3     1  UNL1        0.0788
      2 O           6.1116   -0.0097   -0.2389 O.3     1  UNL1       -0.4951
      3 C           4.7421   -0.2750   -0.0916 C.ar    1  UNL1        0.1201
      4 C           4.3441   -1.1972    0.8816 C.ar    1  UNL1       -0.0193
      5 C           2.9916   -1.4969    1.0677 C.ar    1  UNL1       -0.0476
      6 C           2.0078   -0.8783    0.2741 C.ar    1  UNL1        0.0176
      7 C           2.4089    0.0536   -0.6970 C.ar    1  UNL1       -0.0476
      8 C           3.7619    0.3518   -0.8826 C.ar    1  UNL1       -0.0193
      9 C           0.5664   -1.1706    0.4663 C.ar    1  UNL1        0.1394
     10 C           0.1288   -2.4342    0.8695 C.ar    1  UNL1        0.0288
     11 C          -1.2318   -2.6599    1.0537 C.ar    1  UNL1        0.1969
     12 O          -1.6050   -3.8280    1.3378 O.2     1  UNL1       -0.2869
     13 C          -2.1529   -1.5986    0.8788 C.ar    1  UNL1        0.1128
     14 C          -1.6398   -0.3617    0.4011 C.ar    1  UNL1        0.1881
     15 O          -0.3269   -0.2147    0.2322 O.2     1  UNL1       -0.4507
     16 C          -2.5146    0.7170    0.1069 C.ar    1  UNL1        0.2088
     17 O          -2.0507    1.9626   -0.3572 O.3     1  UNL1       -0.4884
     18 C          -0.7322    2.2890   -0.7807 C.3     1  UNL1        0.0791
     19 C          -3.9099    0.5475    0.2889 C.ar    1  UNL1        0.2108
     20 O          -4.8624    1.5441   -0.0077 O.3     1  UNL1       -0.4883
     21 C          -4.6201    2.8255   -0.5784 C.3     1  UNL1        0.0791
     22 C          -4.4032   -0.6641    0.7974 C.ar    1  UNL1        0.2055
     23 O          -5.7740   -0.8385    1.0070 O.3     1  UNL1       -0.5008
     24 C          -3.5454   -1.7161    1.1258 C.ar    1  UNL1        0.1768
     25 O          -4.1291   -2.8374    1.7253 O.3     1  UNL1       -0.5027
     26 H           6.2691    1.9272   -0.9949 H       1  UNL1        0.0660
     27 H           7.7604    0.9169   -1.0835 H       1  UNL1        0.0660
     28 H           6.3980    0.5837   -2.2173 H       1  UNL1        0.0660
     29 H           5.0880   -1.6804    1.5025 H       1  UNL1        0.0654
     30 H           2.7187   -2.1949    1.8484 H       1  UNL1        0.0626
     31 H           1.6775    0.5392   -1.3277 H       1  UNL1        0.0626
     32 H           4.0344    1.0691   -1.6446 H       1  UNL1        0.0654
     33 H           0.8290   -3.2500    1.0030 H       1  UNL1        0.0693
     34 H          -0.0251    2.2352    0.0733 H       1  UNL1        0.0660
     35 H          -0.4226    1.6171   -1.6075 H       1  UNL1        0.0660
     36 H          -0.7278    3.3303   -1.1622 H       1  UNL1        0.0660
     37 H          -5.5914    3.3405   -0.7249 H       1  UNL1        0.0660
     38 H          -4.0049    3.4435    0.1087 H       1  UNL1        0.0660
     39 H          -4.1323    2.7203   -1.5703 H       1  UNL1        0.0660
     40 H          -6.4567   -0.1198    0.7996 H       1  UNL1        0.2924
     41 H          -3.6356   -3.4922    2.3139 H       1  UNL1        0.2923
@<TRIPOS>BOND
     1     1     2    1
     2     2     3    1
     3     3     4   ar
     4     4     5   ar
     5     5     6   ar
     6     6     7   ar
     7     7     8   ar
     8     6     9    1
     9     9    10   ar
    10    10    11   ar
    11    11    12    2
    12    11    13   ar
    13    13    14   ar
    14    14    15   ar
    15    14    16   ar
    16    16    17    1
    17    17    18    1
    18    16    19   ar
    19    19    20    1
    20    20    21    1
    21    19    22   ar
    22    22    23    1
    23    22    24   ar
    24    24    25    1
    25     8     3   ar
    26    15     9   ar
    27    24    13   ar
    28     1    26    1
    29     1    27    1
    30     1    28    1
    31     4    29    1
    32     5    30    1
    33     7    31    1
    34     8    32    1
    35    10    33    1
    36    18    34    1
    37    18    35    1
    38    18    36    1
    39    21    37    1
    40    21    38    1
    41    21    39    1
    42    23    40    1
    43    25    41    1
