@<TRIPOS>MOLECULE
Gardenin B
 44 46 0 0 0
SMALL
GASTEIGER

@<TRIPOS>ATOM
      1 C           7.4178    0.9613   -1.2970 C.3     1  UNL1        0.0788
      2 O           6.3220    1.5577   -0.6108 O.3     1  UNL1       -0.4951
      3 C           5.0520    0.9744   -0.4890 C.ar    1  UNL1        0.1201
      4 C           4.7395   -0.2786   -1.0473 C.ar    1  UNL1       -0.0193
      5 C           3.4585   -0.8185   -0.8976 C.ar    1  UNL1       -0.0476
      6 C           2.4669   -0.1200   -0.1838 C.ar    1  UNL1        0.0176
      7 C           2.7834    1.1338    0.3635 C.ar    1  UNL1       -0.0476
      8 C           4.0645    1.6719    0.2139 C.ar    1  UNL1       -0.0193
      9 C           1.0982   -0.6698   -0.0280 C.ar    1  UNL1        0.1394
     10 C           0.8745   -2.0450    0.0675 C.ar    1  UNL1        0.0288
     11 C          -0.4278   -2.5175    0.1953 C.ar    1  UNL1        0.1969
     12 O          -0.5954   -3.7525    0.3746 O.2     1  UNL1       -0.2869
     13 C          -1.5144   -1.6086    0.1717 C.ar    1  UNL1        0.1128
     14 C          -2.8747   -2.0152    0.1970 C.ar    1  UNL1        0.1770
     15 O          -3.2449   -3.3488    0.0069 O.3     1  UNL1       -0.5027
     16 C          -3.8911   -1.0478    0.3636 C.ar    1  UNL1        0.2080
     17 O          -5.2561   -1.3727    0.5025 O.3     1  UNL1       -0.4884
     18 C          -5.8134   -2.6730    0.6626 C.3     1  UNL1        0.0791
     19 C          -3.5751    0.3175    0.3769 C.ar    1  UNL1        0.2110
     20 O          -4.6639    1.2015    0.5281 O.3     1  UNL1       -0.4883
     21 C          -4.6133    2.6195    0.6440 C.3     1  UNL1        0.0791
     22 C          -2.2326    0.7455    0.2388 C.ar    1  UNL1        0.2088
     23 O          -1.9769    2.1293    0.1926 O.3     1  UNL1       -0.4884
     24 C          -0.7099    2.7753    0.2313 C.3     1  UNL1        0.0791
     25 C          -1.2030   -0.2236    0.1499 C.ar    1  UNL1        0.1881
     26 O           0.0665    0.1652    0.0418 O.2     1  UNL1       -0.4507
     27 H           7.6817   -0.0087   -0.8250 H       1  UNL1        0.0660
     28 H           8.2953    1.6369   -1.2352 H       1  UNL1        0.0660
     29 H           7.1611    0.8089   -2.3667 H       1  UNL1        0.0660
     30 H           5.4768   -0.8408   -1.6040 H       1  UNL1        0.0654
     31 H           3.2413   -1.7718   -1.3615 H       1  UNL1        0.0626
     32 H           2.0466    1.6913    0.9245 H       1  UNL1        0.0626
     33 H           4.2920    2.6368    0.6492 H       1  UNL1        0.0654
     34 H           1.7017   -2.7443    0.0853 H       1  UNL1        0.0693
     35 H          -2.6926   -4.0210   -0.5066 H       1  UNL1        0.2923
     36 H          -6.8955   -2.5732    0.8848 H       1  UNL1        0.0660
     37 H          -5.3304   -3.1984    1.5135 H       1  UNL1        0.0660
     38 H          -5.7101   -3.2545   -0.2771 H       1  UNL1        0.0660
     39 H          -5.6409    3.0007    0.8138 H       1  UNL1        0.0660
     40 H          -3.9879    2.9137    1.5131 H       1  UNL1        0.0660
     41 H          -4.2321    3.0698   -0.2963 H       1  UNL1        0.0660
     42 H          -0.1699    2.4940    1.1586 H       1  UNL1        0.0660
     43 H          -0.8695    3.8727    0.2449 H       1  UNL1        0.0660
     44 H          -0.1188    2.5271   -0.6749 H       1  UNL1        0.0660
@<TRIPOS>BOND
     1     1     2    1
     2     2     3    1
     3     3     4   ar
     4     4     5   ar
     5     5     6   ar
     6     6     7   ar
     7     7     8   ar
     8     6     9    1
     9     9    10   ar
    10    10    11   ar
    11    11    12    2
    12    11    13   ar
    13    13    14   ar
    14    14    15    1
    15    14    16   ar
    16    16    17    1
    17    17    18    1
    18    16    19   ar
    19    19    20    1
    20    20    21    1
    21    19    22   ar
    22    22    23    1
    23    23    24    1
    24    22    25   ar
    25    25    26   ar
    26     8     3   ar
    27    26     9   ar
    28    25    13   ar
    29     1    27    1
    30     1    28    1
    31     1    29    1
    32     4    30    1
    33     5    31    1
    34     7    32    1
    35     8    33    1
    36    10    34    1
    37    15    35    1
    38    18    36    1
    39    18    37    1
    40    18    38    1
    41    21    39    1
    42    21    40    1
    43    21    41    1
    44    24    42    1
    45    24    43    1
    46    24    44    1
