@<TRIPOS>MOLECULE
Nepetin
 35 37 0 0 0
SMALL
GASTEIGER

@<TRIPOS>ATOM
      1 C          -6.2230   -0.3162    0.4342 C.3     1  UNL1        0.0791
      2 O          -5.1731    0.4796   -0.1044 O.3     1  UNL1       -0.4885
      3 C          -3.7910    0.2372    0.0152 C.ar    1  UNL1        0.2040
      4 C          -2.9142    1.1579   -0.5988 C.ar    1  UNL1        0.1768
      5 O          -3.4345    2.2560   -1.2904 O.3     1  UNL1       -0.5027
      6 C          -1.5133    0.9747   -0.5173 C.ar    1  UNL1        0.1091
      7 C          -1.0009   -0.1375    0.1846 C.ar    1  UNL1        0.1465
      8 O           0.3104   -0.3347    0.2795 O.2     1  UNL1       -0.4543
      9 C           1.2137    0.4796   -0.2609 C.ar    1  UNL1        0.1393
     10 C           0.7830    1.6030   -0.9842 C.ar    1  UNL1        0.0288
     11 C          -0.5837    1.8537   -1.1124 C.ar    1  UNL1        0.1967
     12 O          -0.9587    2.8648   -1.7655 O.2     1  UNL1       -0.2869
     13 C           2.6541    0.1609   -0.0918 C.ar    1  UNL1        0.0211
     14 C           3.0478   -1.1732    0.1159 C.ar    1  UNL1       -0.0059
     15 C           4.3967   -1.5046    0.2870 C.ar    1  UNL1        0.1589
     16 O           4.7464   -2.8407    0.4807 O.3     1  UNL1       -0.5033
     17 C           5.3729   -0.4957    0.2616 C.ar    1  UNL1        0.1583
     18 O           6.7182   -0.8193    0.4310 O.3     1  UNL1       -0.5033
     19 C           4.9878    0.8368    0.0689 C.ar    1  UNL1       -0.0159
     20 C           3.6407    1.1653   -0.1027 C.ar    1  UNL1       -0.0474
     21 C          -1.8680   -1.0452    0.7888 C.ar    1  UNL1        0.0268
     22 C          -3.2543   -0.8725    0.7135 C.ar    1  UNL1        0.1657
     23 O          -4.0814   -1.8069    1.3342 O.3     1  UNL1       -0.5031
     24 H          -6.1918   -1.3383    0.0017 H       1  UNL1        0.0660
     25 H          -7.1955    0.1439    0.1645 H       1  UNL1        0.0660
     26 H          -6.1511   -0.3497    1.5416 H       1  UNL1        0.0660
     27 H          -4.4284    2.4299   -1.3764 H       1  UNL1        0.2923
     28 H           1.4902    2.2648   -1.4675 H       1  UNL1        0.0693
     29 H           2.3085   -1.9649    0.1339 H       1  UNL1        0.0662
     30 H           5.7079   -3.1321    0.6093 H       1  UNL1        0.2923
     31 H           7.4407   -0.1088    0.4175 H       1  UNL1        0.2923
     32 H           5.7331    1.6221    0.0590 H       1  UNL1        0.0655
     33 H           3.3769    2.2078   -0.2177 H       1  UNL1        0.0626
     34 H          -1.4592   -1.8940    1.3234 H       1  UNL1        0.0692
     35 H          -3.7069   -2.6039    1.8360 H       1  UNL1        0.2923
@<TRIPOS>BOND
     1     1     2    1
     2     2     3    1
     3     3     4   ar
     4     4     5    1
     5     4     6   ar
     6     6     7   ar
     7     7     8   ar
     8     8     9   ar
     9     9    10   ar
    10    10    11   ar
    11    11    12    2
    12     9    13    1
    13    13    14   ar
    14    14    15   ar
    15    15    16    1
    16    15    17   ar
    17    17    18    1
    18    17    19   ar
    19    19    20   ar
    20     7    21   ar
    21    21    22   ar
    22    22    23    1
    23    22     3   ar
    24    11     6   ar
    25    20    13   ar
    26     1    24    1
    27     1    25    1
    28     1    26    1
    29     5    27    1
    30    10    28    1
    31    14    29    1
    32    16    30    1
    33    18    31    1
    34    19    32    1
    35    20    33    1
    36    21    34    1
    37    23    35    1
