@<TRIPOS>MOLECULE
Jaceosidin
 38 40 0 0 0
SMALL
GASTEIGER

@<TRIPOS>ATOM
      1 C          -4.6256    2.5363   -0.3408 C.3     1  UNL1        0.0790
      2 O          -5.1233    1.2171   -0.1419 O.3     1  UNL1       -0.4914
      3 C          -4.3195    0.0832    0.0592 C.ar    1  UNL1        0.1619
      4 C          -4.9415   -1.1644    0.2417 C.ar    1  UNL1        0.1585
      5 O          -6.3309   -1.2864    0.2264 O.3     1  UNL1       -0.5033
      6 C          -4.1664   -2.3097    0.4393 C.ar    1  UNL1       -0.0159
      7 C          -2.7733   -2.2276    0.4622 C.ar    1  UNL1       -0.0474
      8 C          -2.1295   -0.9885    0.2944 C.ar    1  UNL1        0.0211
      9 C          -2.9124    0.1606    0.0827 C.ar    1  UNL1       -0.0057
     10 C          -0.6489   -0.8738    0.3031 C.ar    1  UNL1        0.1393
     11 C           0.1584   -1.7672    1.0198 C.ar    1  UNL1        0.0288
     12 C           1.5453   -1.6160    0.9929 C.ar    1  UNL1        0.1967
     13 O           2.2404   -2.3802    1.7122 O.2     1  UNL1       -0.2869
     14 C           2.1273   -0.5904    0.2084 C.ar    1  UNL1        0.1091
     15 C           1.2353    0.3045   -0.4322 C.ar    1  UNL1        0.1465
     16 O          -0.0795    0.1221   -0.3678 O.2     1  UNL1       -0.4543
     17 C           1.7216    1.4029   -1.1355 C.ar    1  UNL1        0.0268
     18 C           3.0918    1.6516   -1.2033 C.ar    1  UNL1        0.1657
     19 O           3.5622    2.7785   -1.8770 O.3     1  UNL1       -0.5031
     20 C           4.0059    0.7749   -0.6058 C.ar    1  UNL1        0.2040
     21 O           5.3689    1.1081   -0.7310 O.3     1  UNL1       -0.4885
     22 C           6.4690    0.4312   -0.1329 C.3     1  UNL1        0.0791
     23 C           3.5326   -0.3861    0.0629 C.ar    1  UNL1        0.1768
     24 O           4.4635   -1.3213    0.5214 O.3     1  UNL1       -0.5027
     25 H          -3.9932    2.5727   -1.2529 H       1  UNL1        0.0660
     26 H          -5.4810    3.2298   -0.4743 H       1  UNL1        0.0660
     27 H          -4.0400    2.8613    0.5451 H       1  UNL1        0.0660
     28 H          -6.9416   -0.4906    0.0864 H       1  UNL1        0.2923
     29 H          -4.6474   -3.2710    0.5689 H       1  UNL1        0.0655
     30 H          -2.2064   -3.1404    0.5867 H       1  UNL1        0.0626
     31 H          -2.4213    1.1150   -0.0513 H       1  UNL1        0.0662
     32 H          -0.2778   -2.5465    1.6320 H       1  UNL1        0.0693
     33 H           1.0262    2.0824   -1.6132 H       1  UNL1        0.0692
     34 H           2.9308    3.4338   -2.3230 H       1  UNL1        0.2923
     35 H           6.5825   -0.5818   -0.5724 H       1  UNL1        0.0660
     36 H           6.3361    0.3765    0.9682 H       1  UNL1        0.0660
     37 H           7.3968    1.0015   -0.3428 H       1  UNL1        0.0660
     38 H           4.2650   -2.3020    0.6562 H       1  UNL1        0.2923
@<TRIPOS>BOND
     1     1     2    1
     2     2     3    1
     3     3     4   ar
     4     4     5    1
     5     4     6   ar
     6     6     7   ar
     7     7     8   ar
     8     8     9   ar
     9     8    10    1
    10    10    11   ar
    11    11    12   ar
    12    12    13    2
    13    12    14   ar
    14    14    15   ar
    15    15    16   ar
    16    15    17   ar
    17    17    18   ar
    18    18    19    1
    19    18    20   ar
    20    20    21    1
    21    21    22    1
    22    20    23   ar
    23    23    24    1
    24     9     3   ar
    25    16    10   ar
    26    23    14   ar
    27     1    25    1
    28     1    26    1
    29     1    27    1
    30     5    28    1
    31     6    29    1
    32     7    30    1
    33     9    31    1
    34    11    32    1
    35    17    33    1
    36    19    34    1
    37    22    35    1
    38    22    36    1
    39    22    37    1
    40    24    38    1
