@<TRIPOS>MOLECULE
Cirsilineol
 41 43 0 0 0
SMALL
GASTEIGER

@<TRIPOS>ATOM
      1 C           5.7163    0.5719    2.6186 C.3     1  UNL1        0.0790
      2 O           5.8845    0.1692    1.2631 O.3     1  UNL1       -0.4914
      3 C           4.8397    0.0468    0.3334 C.ar    1  UNL1        0.1619
      4 C           5.1530   -0.3572   -0.9712 C.ar    1  UNL1        0.1585
      5 O           6.4791   -0.6185   -1.3120 O.3     1  UNL1       -0.5033
      6 C           4.1384   -0.5004   -1.9247 C.ar    1  UNL1       -0.0159
      7 C           2.8104   -0.2370   -1.5857 C.ar    1  UNL1       -0.0474
      8 C           2.4747    0.1840   -0.2886 C.ar    1  UNL1        0.0211
      9 C           3.4974    0.3125    0.6717 C.ar    1  UNL1       -0.0057
     10 C           1.0529    0.4502    0.0464 C.ar    1  UNL1        0.1393
     11 C           0.6860    1.3654    1.0419 C.ar    1  UNL1        0.0288
     12 C          -0.6652    1.5769    1.3180 C.ar    1  UNL1        0.1967
     13 O          -0.9674    2.4568    2.1654 O.2     1  UNL1       -0.2869
     14 C          -1.6506    0.8392    0.6180 C.ar    1  UNL1        0.1091
     15 C          -3.0516    0.9364    0.8531 C.ar    1  UNL1        0.1768
     16 O          -3.5981    1.6579    1.9201 O.3     1  UNL1       -0.5027
     17 C          -3.9620    0.2674    0.0142 C.ar    1  UNL1        0.2043
     18 O          -5.3302    0.4629    0.2895 O.3     1  UNL1       -0.4885
     19 C          -6.4304   -0.1050   -0.4126 C.3     1  UNL1        0.0791
     20 C          -3.4862   -0.5643   -1.0290 C.ar    1  UNL1        0.1687
     21 O          -4.3942   -1.2372   -1.8622 O.3     1  UNL1       -0.4912
     22 C          -4.0348   -2.0973   -2.9391 C.3     1  UNL1        0.0790
     23 C          -2.1016   -0.7105   -1.2093 C.ar    1  UNL1        0.0270
     24 C          -1.1948   -0.0204   -0.4087 C.ar    1  UNL1        0.1465
     25 O           0.1047   -0.1807   -0.6381 O.2     1  UNL1       -0.4543
     26 H           6.7070    0.5890    3.1171 H       1  UNL1        0.0660
     27 H           5.0624   -0.1493    3.1529 H       1  UNL1        0.0660
     28 H           5.2787    1.5916    2.6627 H       1  UNL1        0.0660
     29 H           6.7386   -0.9134   -2.2462 H       1  UNL1        0.2923
     30 H           4.3789   -0.8160   -2.9321 H       1  UNL1        0.0655
     31 H           2.0454   -0.3508   -2.3440 H       1  UNL1        0.0626
     32 H           3.2480    0.5925    1.6846 H       1  UNL1        0.0662
     33 H           1.4322    1.9445    1.5713 H       1  UNL1        0.0693
     34 H          -3.0963    1.9093    2.7586 H       1  UNL1        0.2923
     35 H          -7.3730    0.2517    0.0506 H       1  UNL1        0.0660
     36 H          -6.4057   -1.2123   -0.3364 H       1  UNL1        0.0660
     37 H          -6.4211    0.2231   -1.4733 H       1  UNL1        0.0660
     38 H          -3.4485   -1.5364   -3.6972 H       1  UNL1        0.0660
     39 H          -3.4480   -2.9603   -2.5597 H       1  UNL1        0.0660
     40 H          -4.9584   -2.4810   -3.4187 H       1  UNL1        0.0660
     41 H          -1.7101   -1.3510   -1.9881 H       1  UNL1        0.0692
@<TRIPOS>BOND
     1     1     2    1
     2     2     3    1
     3     3     4   ar
     4     4     5    1
     5     4     6   ar
     6     6     7   ar
     7     7     8   ar
     8     8     9   ar
     9     8    10    1
    10    10    11   ar
    11    11    12   ar
    12    12    13    2
    13    12    14   ar
    14    14    15   ar
    15    15    16    1
    16    15    17   ar
    17    17    18    1
    18    18    19    1
    19    17    20   ar
    20    20    21    1
    21    21    22    1
    22    20    23   ar
    23    23    24   ar
    24    24    25   ar
    25     9     3   ar
    26    25    10   ar
    27    24    14   ar
    28     1    26    1
    29     1    27    1
    30     1    28    1
    31     5    29    1
    32     6    30    1
    33     7    31    1
    34     9    32    1
    35    11    33    1
    36    16    34    1
    37    19    35    1
    38    19    36    1
    39    19    37    1
    40    22    38    1
    41    22    39    1
    42    22    40    1
    43    23    41    1
