@<TRIPOS>MOLECULE
Eupatorin
 41 43 0 0 0
SMALL
GASTEIGER

@<TRIPOS>ATOM
      1 C           6.9742   -0.2276    1.7446 C.3     1  UNL1        0.0790
      2 O           6.4596   -0.1620    0.4185 O.3     1  UNL1       -0.4915
      3 C           5.0997   -0.0211    0.1006 C.ar    1  UNL1        0.1613
      4 C           4.7297    0.0291   -1.2499 C.ar    1  UNL1        0.1591
      5 O           5.7113   -0.0691   -2.2349 O.3     1  UNL1       -0.5033
      6 C           3.3817    0.1728   -1.6086 C.ar    1  UNL1       -0.0059
      7 C           2.3839    0.2748   -0.6211 C.ar    1  UNL1        0.0211
      8 C           2.7608    0.2083    0.7303 C.ar    1  UNL1       -0.0474
      9 C           4.1033    0.0671    1.0898 C.ar    1  UNL1       -0.0156
     10 C           0.9484    0.4172   -0.9727 C.ar    1  UNL1        0.1393
     11 C           0.5347    1.0243   -2.1687 C.ar    1  UNL1        0.0288
     12 C          -0.8283    1.1323   -2.4468 C.ar    1  UNL1        0.1967
     13 O          -1.1881    1.6807   -3.5235 O.2     1  UNL1       -0.2869
     14 C          -1.7710    0.6340   -1.5224 C.ar    1  UNL1        0.1091
     15 C          -3.1679    0.7025   -1.7288 C.ar    1  UNL1        0.1768
     16 O          -3.6706    1.2811   -2.8983 O.3     1  UNL1       -0.5027
     17 C          -4.0596    0.1901   -0.7616 C.ar    1  UNL1        0.2043
     18 O          -5.4369    0.2952   -1.0400 O.3     1  UNL1       -0.4885
     19 C          -6.5107   -0.1489   -0.2180 C.3     1  UNL1        0.0791
     20 C          -3.5471   -0.3963    0.4247 C.ar    1  UNL1        0.1687
     21 O          -4.4263   -0.9078    1.3927 O.3     1  UNL1       -0.4912
     22 C          -4.0309   -1.5168    2.6180 C.3     1  UNL1        0.0790
     23 C          -2.1552   -0.4574    0.6156 C.ar    1  UNL1        0.0270
     24 C          -1.2761    0.0474   -0.3395 C.ar    1  UNL1        0.1465
     25 O           0.0326   -0.0329   -0.1185 O.2     1  UNL1       -0.4543
     26 H           8.0770   -0.3377    1.7004 H       1  UNL1        0.0660
     27 H           6.7318    0.7061    2.2948 H       1  UNL1        0.0660
     28 H           6.5503   -1.1059    2.2756 H       1  UNL1        0.0660
     29 H           5.4796   -0.0372   -3.2209 H       1  UNL1        0.2923
     30 H           3.1220    0.1778   -2.6586 H       1  UNL1        0.0662
     31 H           2.0158    0.2783    1.5135 H       1  UNL1        0.0626
     32 H           4.3553    0.0278    2.1406 H       1  UNL1        0.0655
     33 H           1.2521    1.4346   -2.8678 H       1  UNL1        0.0693
     34 H          -4.6615    1.3545   -3.0938 H       1  UNL1        0.2923
     35 H          -7.4692    0.0825   -0.7258 H       1  UNL1        0.0660
     36 H          -6.4544   -1.2480   -0.0713 H       1  UNL1        0.0660
     37 H          -6.4976    0.3858    0.7549 H       1  UNL1        0.0660
     38 H          -3.4178   -2.4202    2.4156 H       1  UNL1        0.0660
     39 H          -4.9379   -1.8229    3.1783 H       1  UNL1        0.0660
     40 H          -3.4591   -0.7938    3.2372 H       1  UNL1        0.0660
     41 H          -1.7377   -0.8993    1.5103 H       1  UNL1        0.0692
@<TRIPOS>BOND
     1     1     2    1
     2     2     3    1
     3     3     4   ar
     4     4     5    1
     5     4     6   ar
     6     6     7   ar
     7     7     8   ar
     8     8     9   ar
     9     7    10    1
    10    10    11   ar
    11    11    12   ar
    12    12    13    2
    13    12    14   ar
    14    14    15   ar
    15    15    16    1
    16    15    17   ar
    17    17    18    1
    18    18    19    1
    19    17    20   ar
    20    20    21    1
    21    21    22    1
    22    20    23   ar
    23    23    24   ar
    24    24    25   ar
    25     9     3   ar
    26    25    10   ar
    27    24    14   ar
    28     1    26    1
    29     1    27    1
    30     1    28    1
    31     5    29    1
    32     6    30    1
    33     8    31    1
    34     9    32    1
    35    11    33    1
    36    16    34    1
    37    19    35    1
    38    19    36    1
    39    19    37    1
    40    22    38    1
    41    22    39    1
    42    22    40    1
    43    23    41    1
