@<TRIPOS>MOLECULE
6-Hydroxyluteolin
 32 34 0 0 0
SMALL
GASTEIGER

@<TRIPOS>ATOM
      1 O          -4.5833    2.3109    0.9014 O.3     1  UNL1       -0.5031
      2 C          -3.8100    1.2431    0.4451 C.ar    1  UNL1        0.1655
      3 C          -2.4248    1.3584    0.4723 C.ar    1  UNL1        0.0268
      4 C          -1.6139    0.3162    0.0261 C.ar    1  UNL1        0.1465
      5 C          -2.1841   -0.8866   -0.4662 C.ar    1  UNL1        0.1091
      6 C          -3.6114   -1.0031   -0.4932 C.ar    1  UNL1        0.1766
      7 O          -4.2964   -2.1346   -0.9540 O.3     1  UNL1       -0.5027
      8 C          -4.4058    0.0691   -0.0347 C.ar    1  UNL1        0.2015
      9 O          -5.7998   -0.0206   -0.0510 O.3     1  UNL1       -0.5009
     10 C          -1.2736   -1.8847   -0.8954 C.ar    1  UNL1        0.1967
     11 O          -1.6578   -2.9918   -1.3505 O.2     1  UNL1       -0.2869
     12 C           0.1017   -1.6558   -0.8208 C.ar    1  UNL1        0.0288
     13 C           0.5813   -0.4352   -0.3199 C.ar    1  UNL1        0.1393
     14 O          -0.2969    0.4810    0.0749 O.2     1  UNL1       -0.4543
     15 C           2.0379   -0.1129   -0.2076 C.ar    1  UNL1        0.0211
     16 C           2.4226    1.1418    0.3090 C.ar    1  UNL1       -0.0059
     17 C           3.7716    1.4912    0.4342 C.ar    1  UNL1        0.1589
     18 O           4.1014    2.7440    0.9509 O.3     1  UNL1       -0.5033
     19 C           4.7672    0.5850    0.0419 C.ar    1  UNL1        0.1583
     20 O           6.1131    0.9270    0.1640 O.3     1  UNL1       -0.5033
     21 C           4.4018   -0.6633   -0.4724 C.ar    1  UNL1       -0.0159
     22 C           3.0544   -1.0122   -0.5974 C.ar    1  UNL1       -0.0474
     23 H          -5.5958    2.2827    0.9050 H       1  UNL1        0.2923
     24 H          -1.9720    2.2694    0.8448 H       1  UNL1        0.0692
     25 H          -3.8889   -2.9812   -1.3131 H       1  UNL1        0.2923
     26 H          -6.2922   -0.8401   -0.3849 H       1  UNL1        0.2924
     27 H           0.7650   -2.4378   -1.1564 H       1  UNL1        0.0693
     28 H           1.6764    1.8623    0.6203 H       1  UNL1        0.0662
     29 H           5.0622    3.0448    1.0617 H       1  UNL1        0.2923
     30 H           6.8502    0.2890   -0.1128 H       1  UNL1        0.2923
     31 H           5.1647   -1.3685   -0.7776 H       1  UNL1        0.0655
     32 H           2.8354   -1.9876   -1.0003 H       1  UNL1        0.0626
@<TRIPOS>BOND
     1     1     2    1
     2     2     3   ar
     3     3     4   ar
     4     4     5   ar
     5     5     6   ar
     6     6     7    1
     7     6     8   ar
     8     8     9    1
     9     5    10   ar
    10    10    11    2
    11    10    12   ar
    12    12    13   ar
    13    13    14   ar
    14    13    15    1
    15    15    16   ar
    16    16    17   ar
    17    17    18    1
    18    17    19   ar
    19    19    20    1
    20    19    21   ar
    21    21    22   ar
    22     8     2   ar
    23    22    15   ar
    24    14     4   ar
    25     1    23    1
    26     3    24    1
    27     7    25    1
    28     9    26    1
    29    12    27    1
    30    16    28    1
    31    18    29    1
    32    20    30    1
    33    21    31    1
    34    22    32    1
