@<TRIPOS>MOLECULE
6-Hydroxyluteolin 7-O-rhamnoside
 52 55 0 0 0
SMALL
GASTEIGER

@<TRIPOS>ATOM
      1 C          -6.7729   -0.1886   -0.8517 C.3     1  UNL1       -0.0360
      2 C          -5.4995    0.4486   -0.2851 C.3     1  UNL1        0.0883
      3 O          -4.3957   -0.0491   -1.0346 O.3     1  UNL1       -0.3339
      4 C          -3.1705    0.2977   -0.4202 C.3     1  UNL1        0.2309
      5 O          -2.1109    0.0868   -1.3549 O.3     1  UNL1       -0.4569
      6 C          -0.8637    0.7040   -1.2193 C.ar    1  UNL1        0.1724
      7 C           0.2334   -0.0670   -0.8310 C.ar    1  UNL1        0.0271
      8 C           1.4847    0.5211   -0.6449 C.ar    1  UNL1        0.1465
      9 C           1.6593    1.9072   -0.8616 C.ar    1  UNL1        0.1091
     10 C           2.9450    2.4440   -0.6435 C.ar    1  UNL1        0.1967
     11 O           3.1808    3.6721   -0.8034 O.2     1  UNL1       -0.2869
     12 C           3.9829    1.6045   -0.2369 C.ar    1  UNL1        0.0288
     13 C           3.7325    0.2349   -0.0548 C.ar    1  UNL1        0.1393
     14 O           2.5053   -0.2380   -0.2587 O.2     1  UNL1       -0.4543
     15 C           4.7970   -0.7058    0.3770 C.ar    1  UNL1        0.0211
     16 C           6.1542   -0.4771    0.0770 C.ar    1  UNL1       -0.0059
     17 C           7.1400   -1.3867    0.4881 C.ar    1  UNL1        0.1589
     18 O           8.4806   -1.1496    0.1874 O.3     1  UNL1       -0.5033
     19 C           6.7733   -2.5402    1.2002 C.ar    1  UNL1        0.1583
     20 O           7.7305   -3.4609    1.6252 O.3     1  UNL1       -0.5033
     21 C           5.4268   -2.7776    1.4885 C.ar    1  UNL1       -0.0159
     22 C           4.4454   -1.8726    1.0773 C.ar    1  UNL1       -0.0474
     23 C           0.5561    2.6866   -1.2851 C.ar    1  UNL1        0.1766
     24 O           0.7092    4.0553   -1.5213 O.3     1  UNL1       -0.5027
     25 C          -0.6994    2.0785   -1.4782 C.ar    1  UNL1        0.2019
     26 O          -1.7649    2.8479   -1.9497 O.3     1  UNL1       -0.5009
     27 C          -2.9595   -0.5601    0.8533 C.3     1  UNL1        0.1454
     28 O          -2.2629   -1.7396    0.5374 O.3     1  UNL1       -0.3829
     29 C          -4.3124   -0.9038    1.5291 C.3     1  UNL1        0.1151
     30 O          -4.7976   -2.1302    1.0389 O.3     1  UNL1       -0.3864
     31 C          -5.3405    0.2130    1.2563 C.3     1  UNL1        0.1096
     32 O          -6.5708   -0.0818    1.8705 O.3     1  UNL1       -0.3866
     33 H          -7.6762    0.2754   -0.4016 H       1  UNL1        0.0255
     34 H          -6.8173   -0.0264   -1.9498 H       1  UNL1        0.0255
     35 H          -6.7825   -1.2816   -0.6554 H       1  UNL1        0.0255
     36 H          -5.5871    1.5443   -0.4663 H       1  UNL1        0.0621
     37 H          -3.1799    1.3772   -0.1341 H       1  UNL1        0.1084
     38 H           0.1094   -1.1284   -0.6566 H       1  UNL1        0.0692
     39 H           4.9603    2.0272   -0.0428 H       1  UNL1        0.0693
     40 H           6.4544    0.3892   -0.4968 H       1  UNL1        0.0662
     41 H           8.7725   -0.3259   -0.3255 H       1  UNL1        0.2923
     42 H           8.7183   -3.3343    1.4405 H       1  UNL1        0.2923
     43 H           5.1396   -3.6675    2.0342 H       1  UNL1        0.0655
     44 H           3.4100   -2.0800    1.3186 H       1  UNL1        0.0626
     45 H          -0.0569    4.6448   -1.8237 H       1  UNL1        0.2923
     46 H          -2.6621    2.4462   -2.1917 H       1  UNL1        0.2924
     47 H          -2.3463    0.0475    1.5604 H       1  UNL1        0.0683
     48 H          -1.9175   -2.1051    1.3936 H       1  UNL1        0.2102
     49 H          -4.1373   -0.9842    2.6281 H       1  UNL1        0.0648
     50 H          -5.4379   -2.4788    1.7128 H       1  UNL1        0.2100
     51 H          -4.9404    1.1566    1.6990 H       1  UNL1        0.0646
     52 H          -6.4389    0.0302    2.8482 H       1  UNL1        0.2100
@<TRIPOS>BOND
     1     1     2    1
     2     2     3    1
     3     3     4    1
     4     4     5    1
     5     5     6    1
     6     6     7   ar
     7     7     8   ar
     8     8     9   ar
     9     9    10   ar
    10    10    11    2
    11    10    12   ar
    12    12    13   ar
    13    13    14   ar
    14    13    15    1
    15    15    16   ar
    16    16    17   ar
    17    17    18    1
    18    17    19   ar
    19    19    20    1
    20    19    21   ar
    21    21    22   ar
    22     9    23   ar
    23    23    24    1
    24    23    25   ar
    25    25    26    1
    26     4    27    1
    27    27    28    1
    28    27    29    1
    29    29    30    1
    30    29    31    1
    31    31    32    1
    32    31     2    1
    33    25     6   ar
    34    14     8   ar
    35    22    15   ar
    36     1    33    1
    37     1    34    1
    38     1    35    1
    39     2    36    1
    40     4    37    1
    41     7    38    1
    42    12    39    1
    43    16    40    1
    44    18    41    1
    45    20    42    1
    46    21    43    1
    47    22    44    1
    48    24    45    1
    49    26    46    1
    50    27    47    1
    51    28    48    1
    52    29    49    1
    53    30    50    1
    54    31    51    1
    55    32    52    1
