@<TRIPOS>MOLECULE
Scutellarein
 31 33 0 0 0
SMALL
GASTEIGER

@<TRIPOS>ATOM
      1 O           6.2972    0.4617    0.2357 O.3     1  UNL1       -0.5068
      2 C           4.9196    0.3701    0.0503 C.ar    1  UNL1        0.1169
      3 C           4.1173   -0.3059    0.9774 C.ar    1  UNL1       -0.0195
      4 C           2.7358   -0.3917    0.7809 C.ar    1  UNL1       -0.0476
      5 C           2.1365    0.1893   -0.3516 C.ar    1  UNL1        0.0176
      6 C           2.9516    0.8780   -1.2721 C.ar    1  UNL1       -0.0476
      7 C           4.3329    0.9622   -1.0711 C.ar    1  UNL1       -0.0195
      8 C           0.6658    0.0916   -0.5316 C.ar    1  UNL1        0.1392
      9 C           0.0707    0.1345   -1.7998 C.ar    1  UNL1        0.0288
     10 C          -1.3169    0.0400   -1.9140 C.ar    1  UNL1        0.1967
     11 O          -1.8170    0.0137   -3.0684 O.2     1  UNL1       -0.2869
     12 C          -2.1137   -0.0631   -0.7485 C.ar    1  UNL1        0.1091
     13 C          -1.4263   -0.1525    0.4894 C.ar    1  UNL1        0.1465
     14 O          -0.1012   -0.0651    0.5422 O.2     1  UNL1       -0.4544
     15 C          -2.1300   -0.3442    1.6788 C.ar    1  UNL1        0.0268
     16 C          -3.5208   -0.4596    1.6703 C.ar    1  UNL1        0.1655
     17 O          -4.2108   -0.6771    2.8622 O.3     1  UNL1       -0.5031
     18 C          -4.2233   -0.3474    0.4620 C.ar    1  UNL1        0.2015
     19 O          -5.6160   -0.4416    0.4414 O.3     1  UNL1       -0.5009
     20 C          -3.5393   -0.1200   -0.7432 C.ar    1  UNL1        0.1766
     21 O          -4.3245    0.0672   -1.8856 O.3     1  UNL1       -0.5027
     22 H           6.7522    0.0439    1.0390 H       1  UNL1        0.2921
     23 H           4.5626   -0.7652    1.8507 H       1  UNL1        0.0654
     24 H           2.1369   -0.9234    1.5101 H       1  UNL1        0.0626
     25 H           2.5266    1.3740   -2.1341 H       1  UNL1        0.0626
     26 H           4.9476    1.4953   -1.7853 H       1  UNL1        0.0654
     27 H           0.6724    0.1976   -2.6976 H       1  UNL1        0.0693
     28 H          -1.5889   -0.4188    2.6142 H       1  UNL1        0.0692
     29 H          -3.7273   -0.7592    3.7490 H       1  UNL1        0.2923
     30 H          -6.1601   -0.5990    1.2812 H       1  UNL1        0.2924
     31 H          -4.0097    0.5147   -2.7330 H       1  UNL1        0.2923
@<TRIPOS>BOND
     1     1     2    1
     2     2     3   ar
     3     3     4   ar
     4     4     5   ar
     5     5     6   ar
     6     6     7   ar
     7     5     8    1
     8     8     9   ar
     9     9    10   ar
    10    10    11    2
    11    10    12   ar
    12    12    13   ar
    13    13    14   ar
    14    13    15   ar
    15    15    16   ar
    16    16    17    1
    17    16    18   ar
    18    18    19    1
    19    18    20   ar
    20    20    21    1
    21     7     2   ar
    22    14     8   ar
    23    20    12   ar
    24     1    22    1
    25     3    23    1
    26     4    24    1
    27     6    25    1
    28     7    26    1
    29     9    27    1
    30    15    28    1
    31    17    29    1
    32    19    30    1
    33    21    31    1
