@<TRIPOS>MOLECULE
Apigenin 7-O-(6''-malonyl-apiosyl-glucoside)
 76 80 0 0 0
SMALL
GASTEIGER

@<TRIPOS>ATOM
      1 C          -4.8247    0.5111    1.5474 C.3     1  UNL1        0.1241
      2 C          -4.6942   -0.7623    2.3952 C.3     1  UNL1        0.1212
      3 O          -5.6487   -0.7539    3.4570 O.3     1  UNL1       -0.4616
      4 C          -6.8046   -1.5430    3.4773 C.2     1  UNL1        0.3180
      5 O          -7.0090   -2.4189    2.5928 O.2     1  UNL1       -0.2502
      6 C          -7.8331   -1.3016    4.5316 C.3     1  UNL1        0.1418
      7 C          -8.7341   -0.1887    4.1059 C.2     1  UNL1        0.3155
      8 O          -8.3420    1.1321    4.3002 O.3     1  UNL1       -0.4802
      9 O          -9.8269   -0.4439    3.5327 O.2     1  UNL1       -0.2504
     10 O          -3.7251    0.5846    0.6624 O.3     1  UNL1       -0.3394
     11 C          -4.2211    0.6211   -0.6565 C.3     1  UNL1        0.1881
     12 O          -3.4333   -0.2412   -1.4602 O.3     1  UNL1       -0.3460
     13 C          -3.1480    0.3303   -2.7240 C.3     1  UNL1        0.0796
     14 C          -1.8508    1.1536   -2.6669 C.3     1  UNL1        0.1144
     15 O          -0.8162    0.3252   -2.1573 O.3     1  UNL1       -0.3313
     16 C           0.4221    1.0070   -2.1727 C.3     1  UNL1        0.2308
     17 O           1.3463    0.2499   -1.3873 O.3     1  UNL1       -0.4606
     18 C           2.5972    0.6887   -0.9211 C.ar    1  UNL1        0.1310
     19 C           2.9955    2.0353   -0.9475 C.ar    1  UNL1        0.0226
     20 C           4.2479    2.4313   -0.4612 C.ar    1  UNL1        0.1347
     21 O           4.5084    3.8050   -0.4534 O.3     1  UNL1       -0.5058
     22 C           5.1615    1.4474    0.0169 C.ar    1  UNL1        0.1055
     23 C           6.4922    1.7118    0.4196 C.ar    1  UNL1        0.1966
     24 O           7.0066    2.8552    0.3129 O.2     1  UNL1       -0.2869
     25 C           7.2848    0.6762    0.9164 C.ar    1  UNL1        0.0288
     26 C           6.7650   -0.6239    0.9816 C.ar    1  UNL1        0.1392
     27 O           5.5315   -0.8544    0.5438 O.2     1  UNL1       -0.4544
     28 C           4.7336    0.0960    0.0682 C.ar    1  UNL1        0.1462
     29 C           3.4650   -0.2642   -0.3898 C.ar    1  UNL1        0.0235
     30 C           7.5630   -1.7626    1.5026 C.ar    1  UNL1        0.0176
     31 C           7.2756   -3.0680    1.0638 C.ar    1  UNL1       -0.0476
     32 C           8.0068   -4.1576    1.5460 C.ar    1  UNL1       -0.0195
     33 C           9.0281   -3.9624    2.4793 C.ar    1  UNL1        0.1169
     34 O           9.7485   -5.0576    2.9506 O.3     1  UNL1       -0.5068
     35 C           9.3146   -2.6694    2.9338 C.ar    1  UNL1       -0.0195
     36 C           8.5863   -1.5766    2.4534 C.ar    1  UNL1       -0.0476
     37 C           0.9413    1.1258   -3.6290 C.3     1  UNL1        0.1454
     38 O           1.6867    2.3095   -3.7576 O.3     1  UNL1       -0.3829
     39 C          -0.2224    1.1258   -4.6571 C.3     1  UNL1        0.1152
     40 O          -0.4726   -0.1700   -5.1488 O.3     1  UNL1       -0.3864
     41 C          -1.5078    1.7470   -4.0731 C.3     1  UNL1        0.1120
     42 O          -1.3281    3.1370   -3.9696 O.3     1  UNL1       -0.3865
     43 C          -5.6628    0.1366   -0.6345 C.3     1  UNL1        0.1342
     44 O          -6.4318    0.7396   -1.6432 O.3     1  UNL1       -0.3841
     45 C          -6.1259    0.5459    0.7368 C.3     1  UNL1        0.1151
     46 O          -6.6435    1.8528    0.7116 O.3     1  UNL1       -0.3864
     47 H          -4.7784    1.3846    2.2355 H       1  UNL1        0.0658
     48 H          -3.6804   -0.7806    2.8489 H       1  UNL1        0.0724
     49 H          -4.7867   -1.6706    1.7603 H       1  UNL1        0.0724
     50 H          -8.4242   -2.2266    4.7087 H       1  UNL1        0.0493
     51 H          -7.3306   -1.0271    5.4832 H       1  UNL1        0.0493
     52 H          -8.9307    1.8987    3.9970 H       1  UNL1        0.2951
     53 H          -4.1908    1.6898   -0.9834 H       1  UNL1        0.0937
     54 H          -3.9905    0.9450   -3.1191 H       1  UNL1        0.0587
     55 H          -3.0086   -0.5025   -3.4457 H       1  UNL1        0.0587
     56 H          -2.0305    1.9858   -1.9480 H       1  UNL1        0.0647
     57 H           0.2948    2.0129   -1.7093 H       1  UNL1        0.1084
     58 H           2.3265    2.8031   -1.3055 H       1  UNL1        0.0691
     59 H           5.2231    4.2521    0.1002 H       1  UNL1        0.2922
     60 H           8.3067    0.8847    1.2069 H       1  UNL1        0.0693
     61 H           3.1571   -1.3021   -0.3506 H       1  UNL1        0.0691
     62 H           6.4918   -3.2457    0.3377 H       1  UNL1        0.0626
     63 H           7.7789   -5.1555    1.1933 H       1  UNL1        0.0654
     64 H          10.4940   -4.9489    3.6283 H       1  UNL1        0.2921
     65 H          10.0970   -2.5104    3.6650 H       1  UNL1        0.0654
     66 H           8.8121   -0.5953    2.8480 H       1  UNL1        0.0626
     67 H           1.6016    0.2512   -3.8433 H       1  UNL1        0.0683
     68 H           2.2770    2.1957   -4.5479 H       1  UNL1        0.2102
     69 H           0.0801    1.7367   -5.5366 H       1  UNL1        0.0648
     70 H          -0.6474   -0.7691   -4.3786 H       1  UNL1        0.2100
     71 H          -2.3302    1.5523   -4.8026 H       1  UNL1        0.0647
     72 H          -2.2317    3.5354   -3.8653 H       1  UNL1        0.2100
     73 H          -5.7035   -0.9767   -0.7143 H       1  UNL1        0.0671
     74 H          -6.2657    0.2207   -2.4727 H       1  UNL1        0.2101
     75 H          -6.9026   -0.1623    1.1033 H       1  UNL1        0.0648
     76 H          -7.1098    1.9874    1.5778 H       1  UNL1        0.2100
@<TRIPOS>BOND
     1     1     2    1
     2     2     3    1
     3     3     4    1
     4     4     5    2
     5     4     6    1
     6     6     7    1
     7     7     8    1
     8     7     9    2
     9     1    10    1
    10    10    11    1
    11    11    12    1
    12    12    13    1
    13    13    14    1
    14    14    15    1
    15    15    16    1
    16    16    17    1
    17    17    18    1
    18    18    19   ar
    19    19    20   ar
    20    20    21    1
    21    20    22   ar
    22    22    23   ar
    23    23    24    2
    24    23    25   ar
    25    25    26   ar
    26    26    27   ar
    27    27    28   ar
    28    28    29   ar
    29    26    30    1
    30    30    31   ar
    31    31    32   ar
    32    32    33   ar
    33    33    34    1
    34    33    35   ar
    35    35    36   ar
    36    16    37    1
    37    37    38    1
    38    37    39    1
    39    39    40    1
    40    39    41    1
    41    41    42    1
    42    11    43    1
    43    43    44    1
    44    43    45    1
    45    45    46    1
    46    45     1    1
    47    41    14    1
    48    29    18   ar
    49    36    30   ar
    50    28    22   ar
    51     1    47    1
    52     2    48    1
    53     2    49    1
    54     6    50    1
    55     6    51    1
    56     8    52    1
    57    11    53    1
    58    13    54    1
    59    13    55    1
    60    14    56    1
    61    16    57    1
    62    19    58    1
    63    21    59    1
    64    25    60    1
    65    29    61    1
    66    31    62    1
    67    32    63    1
    68    34    64    1
    69    35    65    1
    70    36    66    1
    71    37    67    1
    72    38    68    1
    73    39    69    1
    74    40    70    1
    75    41    71    1
    76    42    72    1
    77    43    73    1
    78    44    74    1
    79    45    75    1
    80    46    76    1
