@<TRIPOS>MOLECULE
Pelargonidin 3-O-sophoroside
 73 77 0 0 0
SMALL
GASTEIGER

@<TRIPOS>ATOM
      1 O          -3.7669    4.2017   -0.7170 O.3     1  UNL1       -0.3924
      2 C          -2.9198    3.3092   -0.0471 C.3     1  UNL1        0.0730
      3 C          -3.5991    1.9423    0.1149 C.3     1  UNL1        0.1130
      4 O          -2.6237    1.0242    0.5774 O.3     1  UNL1       -0.3405
      5 C          -3.1434   -0.2955    0.5890 C.3     1  UNL1        0.1886
      6 O          -2.1082   -1.1941    0.9378 O.3     1  UNL1       -0.3366
      7 C          -1.1890   -1.3703   -0.1316 C.3     1  UNL1        0.1519
      8 C           0.2604   -1.3001    0.4363 C.3     1  UNL1        0.2316
      9 O           1.0150   -0.3879   -0.3597 O.3     1  UNL1       -0.4514
     10 C           2.2924    0.1085   -0.0513 C.ar    1  UNL1        0.2288
     11 C           3.0284   -0.3489    1.0542 C.ar    1  UNL1        0.0093
     12 C           4.3265    0.1342    1.2871 C.ar    1  UNL1        0.1241
     13 C           5.1339   -0.2906    2.3752 C.ar    1  UNL1        0.1366
     14 O           4.7094   -1.2228    3.3268 O.3     1  UNL1       -0.5057
     15 C           6.4227    0.2371    2.5224 C.ar    1  UNL1        0.0225
     16 C           6.9234    1.1736    1.6158 C.ar    1  UNL1        0.1293
     17 O           8.2099    1.6787    1.7902 O.3     1  UNL1       -0.5063
     18 C           6.1320    1.5959    0.5437 C.ar    1  UNL1        0.0847
     19 C           4.8424    1.0850    0.3750 C.ar    1  UNL1        0.3708
     20 O           4.1100    1.5069   -0.6493 O.2     1  UNL1       -0.1997
     21 C           2.8739    1.0794   -0.8885 C.ar    1  UNL1        0.4045
     22 C           2.1510    1.6419   -2.0527 C.ar    1  UNL1        0.0830
     23 C           0.7965    2.0152   -1.9638 C.ar    1  UNL1       -0.0420
     24 C           0.1378    2.5550   -3.0724 C.ar    1  UNL1       -0.0193
     25 C           0.8242    2.7450   -4.2752 C.ar    1  UNL1        0.1169
     26 O           0.1547    3.2830   -5.3719 O.3     1  UNL1       -0.5068
     27 C           2.1784    2.3974   -4.3646 C.ar    1  UNL1       -0.0193
     28 C           2.8396    1.8559   -3.2580 C.ar    1  UNL1       -0.0420
     29 O           0.9181   -2.5593    0.4362 O.3     1  UNL1       -0.3313
     30 C           0.1023   -3.5404    1.0463 C.3     1  UNL1        0.1140
     31 C           0.9620   -4.7573    1.4071 C.3     1  UNL1        0.0731
     32 O           1.6420   -5.2298    0.2762 O.3     1  UNL1       -0.3924
     33 C          -1.0596   -3.9205    0.0894 C.3     1  UNL1        0.1120
     34 O          -2.1654   -4.4035    0.8131 O.3     1  UNL1       -0.3865
     35 C          -1.4575   -2.7286   -0.8203 C.3     1  UNL1        0.1155
     36 O          -0.7192   -2.7986   -2.0155 O.3     1  UNL1       -0.3863
     37 C          -4.2566   -0.4064    1.6415 C.3     1  UNL1        0.1341
     38 O          -4.7731   -1.7127    1.6304 O.3     1  UNL1       -0.3841
     39 C          -5.3731    0.6056    1.3222 C.3     1  UNL1        0.1141
     40 O          -6.2994    0.6462    2.3776 O.3     1  UNL1       -0.3864
     41 C          -4.7787    2.0110    1.1157 C.3     1  UNL1        0.1119
     42 O          -5.7733    2.8723    0.6229 O.3     1  UNL1       -0.3865
     43 H          -3.2696    5.0581   -0.7807 H       1  UNL1        0.2095
     44 H          -1.9871    3.1801   -0.6399 H       1  UNL1        0.0584
     45 H          -2.6443    3.7191    0.9509 H       1  UNL1        0.0584
     46 H          -3.9723    1.6362   -0.8913 H       1  UNL1        0.0647
     47 H          -3.5712   -0.5739   -0.4073 H       1  UNL1        0.0938
     48 H          -1.2880   -0.5728   -0.9108 H       1  UNL1        0.0687
     49 H           0.2267   -0.8967    1.4751 H       1  UNL1        0.1084
     50 H           2.5870   -1.0825    1.7050 H       1  UNL1        0.0667
     51 H           3.8024   -1.6658    3.3299 H       1  UNL1        0.2922
     52 H           7.0413   -0.0850    3.3510 H       1  UNL1        0.0691
     53 H           8.6032    2.3594    1.1506 H       1  UNL1        0.2921
     54 H           6.5181    2.3232   -0.1599 H       1  UNL1        0.0749
     55 H           0.2523    1.9111   -1.0339 H       1  UNL1        0.0628
     56 H          -0.9055    2.8337   -2.9945 H       1  UNL1        0.0654
     57 H           0.6245    3.4343   -6.2569 H       1  UNL1        0.2921
     58 H           2.7194    2.5466   -5.2904 H       1  UNL1        0.0654
     59 H           3.8862    1.5908   -3.3464 H       1  UNL1        0.0628
     60 H          -0.3115   -3.1550    2.0095 H       1  UNL1        0.0647
     61 H           1.7005   -4.4583    2.1846 H       1  UNL1        0.0584
     62 H           0.3157   -5.5610    1.8266 H       1  UNL1        0.0584
     63 H           2.1701   -6.0131    0.5803 H       1  UNL1        0.2095
     64 H          -0.7317   -4.7480   -0.5780 H       1  UNL1        0.0647
     65 H          -2.5045   -3.6657    1.3826 H       1  UNL1        0.2100
     66 H          -2.5435   -2.8105   -1.0628 H       1  UNL1        0.0648
     67 H          -1.1933   -2.2361   -2.6826 H       1  UNL1        0.2100
     68 H          -3.8179   -0.1720    2.6414 H       1  UNL1        0.0671
     69 H          -5.1628   -1.8770    2.5285 H       1  UNL1        0.2101
     70 H          -5.8834    0.2997    0.3766 H       1  UNL1        0.0648
     71 H          -6.9320   -0.1057    2.2368 H       1  UNL1        0.2100
     72 H          -4.3918    2.3897    2.0924 H       1  UNL1        0.0647
     73 H          -6.3182    3.1593    1.4016 H       1  UNL1        0.2100
@<TRIPOS>UNITY_ATOM_ATTR
20 1
charge 1
@<TRIPOS>BOND
     1     1     2    1
     2     2     3    1
     3     3     4    1
     4     4     5    1
     5     5     6    1
     6     6     7    1
     7     7     8    1
     8     8     9    1
     9     9    10    1
    10    10    11   ar
    11    11    12   ar
    12    12    13   ar
    13    13    14    1
    14    13    15   ar
    15    15    16   ar
    16    16    17    1
    17    16    18   ar
    18    18    19   ar
    19    19    20   ar
    20    20    21   ar
    21    21    22    1
    22    22    23   ar
    23    23    24   ar
    24    24    25   ar
    25    25    26    1
    26    25    27   ar
    27    27    28   ar
    28     8    29    1
    29    29    30    1
    30    30    31    1
    31    31    32    1
    32    30    33    1
    33    33    34    1
    34    33    35    1
    35    35    36    1
    36     5    37    1
    37    37    38    1
    38    37    39    1
    39    39    40    1
    40    39    41    1
    41    41    42    1
    42    41     3    1
    43    35     7    1
    44    21    10   ar
    45    28    22   ar
    46    19    12   ar
    47     1    43    1
    48     2    44    1
    49     2    45    1
    50     3    46    1
    51     5    47    1
    52     7    48    1
    53     8    49    1
    54    11    50    1
    55    14    51    1
    56    15    52    1
    57    17    53    1
    58    18    54    1
    59    23    55    1
    60    24    56    1
    61    26    57    1
    62    27    58    1
    63    28    59    1
    64    30    60    1
    65    31    61    1
    66    31    62    1
    67    32    63    1
    68    33    64    1
    69    34    65    1
    70    35    66    1
    71    36    67    1
    72    37    68    1
    73    38    69    1
    74    39    70    1
    75    40    71    1
    76    41    72    1
    77    42    73    1
