@<TRIPOS>MOLECULE
Chrysoeriol 7-O-apiosyl-glucoside
 72 76 0 0 0
SMALL
GASTEIGER

@<TRIPOS>ATOM
      1 C           7.6385    5.1237   -1.4562 C.3     1  UNL1        0.0790
      2 O           7.2694    4.4773   -2.6702 O.3     1  UNL1       -0.4914
      3 C           6.3683    3.4040   -2.7613 C.ar    1  UNL1        0.1619
      4 C           6.0952    2.8553   -4.0268 C.ar    1  UNL1        0.1585
      5 O           6.7070    3.3547   -5.1765 O.3     1  UNL1       -0.5033
      6 C           5.1953    1.7938   -4.1491 C.ar    1  UNL1       -0.0159
      7 C           4.5659    1.2660   -3.0212 C.ar    1  UNL1       -0.0474
      8 C           4.8342    1.7864   -1.7451 C.ar    1  UNL1        0.0211
      9 C           5.7301    2.8665   -1.6248 C.ar    1  UNL1       -0.0057
     10 C           4.1441    1.2092   -0.5640 C.ar    1  UNL1        0.1393
     11 C           4.7194    1.2304    0.7137 C.ar    1  UNL1        0.0288
     12 C           4.0297    0.6711    1.7903 C.ar    1  UNL1        0.1966
     13 O           4.5467    0.7564    2.9340 O.2     1  UNL1       -0.2869
     14 C           2.7732    0.0546    1.5774 C.ar    1  UNL1        0.1055
     15 C           1.9949   -0.5782    2.5918 C.ar    1  UNL1        0.1347
     16 O           2.4322   -0.7738    3.9055 O.3     1  UNL1       -0.5058
     17 C           0.7190   -1.0654    2.2817 C.ar    1  UNL1        0.0226
     18 C           0.2130   -0.9981    0.9742 C.ar    1  UNL1        0.1310
     19 O          -1.0536   -1.4901    0.6243 O.3     1  UNL1       -0.4606
     20 C          -1.9682   -2.1292    1.5166 C.3     1  UNL1        0.2312
     21 O          -1.4113   -3.3409    2.0203 O.3     1  UNL1       -0.3313
     22 C          -1.5784   -4.4624    1.1624 C.3     1  UNL1        0.1140
     23 C          -0.7298   -4.3416   -0.1221 C.3     1  UNL1        0.0731
     24 O          -0.6551   -5.5772   -0.7820 O.3     1  UNL1       -0.3924
     25 C          -3.0775   -4.7828    0.8763 C.3     1  UNL1        0.1120
     26 O          -3.4759   -5.9252    1.5906 O.3     1  UNL1       -0.3865
     27 C          -3.9885   -3.6096    1.2733 C.3     1  UNL1        0.1155
     28 O          -5.2458   -3.7466    0.6622 O.3     1  UNL1       -0.3863
     29 C          -3.3474   -2.2961    0.8267 C.3     1  UNL1        0.1519
     30 O          -4.1999   -1.2226    1.2006 O.3     1  UNL1       -0.3366
     31 C          -4.3457   -0.2805    0.1541 C.3     1  UNL1        0.1885
     32 O          -3.1084    0.3444   -0.1301 O.3     1  UNL1       -0.3457
     33 C          -3.2974    1.7381   -0.0458 C.3     1  UNL1        0.0843
     34 C          -4.7916    2.0366   -0.0830 C.3     1  UNL1        0.1425
     35 O          -5.1995    2.1274   -1.4309 O.3     1  UNL1       -0.3812
     36 C          -5.1462    3.3260    0.6909 C.3     1  UNL1        0.0778
     37 O          -4.5760    4.4371    0.0554 O.3     1  UNL1       -0.3920
     38 C          -5.3484    0.7893    0.5731 C.3     1  UNL1        0.1387
     39 O          -6.6450    0.4912    0.1231 O.3     1  UNL1       -0.3837
     40 C           0.9929   -0.4261   -0.0283 C.ar    1  UNL1        0.0235
     41 C           2.2535    0.1009    0.2575 C.ar    1  UNL1        0.1462
     42 O           2.9492    0.6526   -0.7311 O.2     1  UNL1       -0.4544
     43 H           8.3688    5.9276   -1.6814 H       1  UNL1        0.0660
     44 H           6.7451    5.5793   -0.9792 H       1  UNL1        0.0660
     45 H           8.1133    4.3958   -0.7648 H       1  UNL1        0.0660
     46 H           7.3667    4.1227   -5.1473 H       1  UNL1        0.2923
     47 H           4.9834    1.3750   -5.1248 H       1  UNL1        0.0655
     48 H           3.8768    0.4397   -3.1460 H       1  UNL1        0.0626
     49 H           5.9100    3.3055   -0.6547 H       1  UNL1        0.0662
     50 H           5.6982    1.6622    0.8796 H       1  UNL1        0.0693
     51 H           3.3913   -0.7185    4.2110 H       1  UNL1        0.2922
     52 H           0.1393   -1.5215    3.0722 H       1  UNL1        0.0691
     53 H          -2.1192   -1.4596    2.3919 H       1  UNL1        0.1084
     54 H          -1.1498   -5.3252    1.7187 H       1  UNL1        0.0647
     55 H           0.2938   -3.9831    0.1331 H       1  UNL1        0.0584
     56 H          -1.1806   -3.6053   -0.8184 H       1  UNL1        0.0584
     57 H           0.0037   -6.1278   -0.2835 H       1  UNL1        0.2095
     58 H          -3.2231   -4.9697   -0.2149 H       1  UNL1        0.0647
     59 H          -3.0947   -6.7083    1.1136 H       1  UNL1        0.2100
     60 H          -4.1094   -3.5839    2.3834 H       1  UNL1        0.0648
     61 H          -5.7393   -4.4392    1.1744 H       1  UNL1        0.2100
     62 H          -3.1954   -2.3696   -0.2790 H       1  UNL1        0.0687
     63 H          -4.7201   -0.7754   -0.7732 H       1  UNL1        0.0938
     64 H          -2.8390    2.0932    0.9039 H       1  UNL1        0.0591
     65 H          -2.7706    2.2377   -0.8873 H       1  UNL1        0.0591
     66 H          -6.1562    2.3931   -1.4458 H       1  UNL1        0.2105
     67 H          -4.7732    3.2635    1.7385 H       1  UNL1        0.0587
     68 H          -6.2527    3.4442    0.7256 H       1  UNL1        0.0587
     69 H          -4.8419    5.2282    0.5923 H       1  UNL1        0.2095
     70 H          -5.3420    0.9052    1.6841 H       1  UNL1        0.0675
     71 H          -6.9742   -0.2536    0.6909 H       1  UNL1        0.2101
     72 H           0.6089   -0.3784   -1.0402 H       1  UNL1        0.0691
@<TRIPOS>BOND
     1     1     2    1
     2     2     3    1
     3     3     4   ar
     4     4     5    1
     5     4     6   ar
     6     6     7   ar
     7     7     8   ar
     8     8     9   ar
     9     8    10    1
    10    10    11   ar
    11    11    12   ar
    12    12    13    2
    13    12    14   ar
    14    14    15   ar
    15    15    16    1
    16    15    17   ar
    17    17    18   ar
    18    18    19    1
    19    19    20    1
    20    20    21    1
    21    21    22    1
    22    22    23    1
    23    23    24    1
    24    22    25    1
    25    25    26    1
    26    25    27    1
    27    27    28    1
    28    27    29    1
    29    29    30    1
    30    30    31    1
    31    31    32    1
    32    32    33    1
    33    33    34    1
    34    34    35    1
    35    34    36    1
    36    36    37    1
    37    34    38    1
    38    38    39    1
    39    18    40   ar
    40    40    41   ar
    41    41    42   ar
    42     9     3   ar
    43    42    10   ar
    44    41    14   ar
    45    29    20    1
    46    38    31    1
    47     1    43    1
    48     1    44    1
    49     1    45    1
    50     5    46    1
    51     6    47    1
    52     7    48    1
    53     9    49    1
    54    11    50    1
    55    16    51    1
    56    17    52    1
    57    20    53    1
    58    22    54    1
    59    23    55    1
    60    23    56    1
    61    24    57    1
    62    25    58    1
    63    26    59    1
    64    27    60    1
    65    28    61    1
    66    29    62    1
    67    31    63    1
    68    33    64    1
    69    33    65    1
    70    35    66    1
    71    36    67    1
    72    36    68    1
    73    37    69    1
    74    38    70    1
    75    39    71    1
    76    40    72    1
