@<TRIPOS>MOLECULE
Chrysoeriol 7-O-(6''-malonyl-apiosyl-glucoside)
 80 84 0 0 0
SMALL
GASTEIGER

@<TRIPOS>ATOM
      1 C          -2.3088   -1.4585   -1.7517 C.3     1  UNL1        0.1885
      2 O          -2.0176   -0.4761   -2.7312 O.3     1  UNL1       -0.3366
      3 C          -2.0869    0.8388   -2.1976 C.3     1  UNL1        0.1519
      4 C          -3.3783    1.5297   -2.6528 C.3     1  UNL1        0.1156
      5 O          -4.5047    0.7924   -2.2516 O.3     1  UNL1       -0.3863
      6 C          -3.4425    2.9319   -2.0226 C.3     1  UNL1        0.1130
      7 O          -4.3738    3.7175   -2.7240 O.3     1  UNL1       -0.3864
      8 C          -2.0512    3.6330   -2.0420 C.3     1  UNL1        0.1250
      9 C          -1.4218    3.7958   -0.6395 C.3     1  UNL1        0.1212
     10 O          -2.2477    4.6069    0.1950 O.3     1  UNL1       -0.4616
     11 C          -2.3473    5.9965    0.0676 C.2     1  UNL1        0.3180
     12 O          -1.5976    6.6288   -0.7257 O.2     1  UNL1       -0.2502
     13 C          -3.3892    6.7277    0.8473 C.3     1  UNL1        0.1418
     14 C          -4.7115    6.5942    0.1651 C.2     1  UNL1        0.3155
     15 O          -5.0844    7.5145   -0.8094 O.3     1  UNL1       -0.4802
     16 O          -5.4687    5.6247    0.4389 O.2     1  UNL1       -0.2504
     17 O          -1.1484    3.0352   -2.9621 O.3     1  UNL1       -0.3301
     18 C          -0.8727    1.6591   -2.7173 C.3     1  UNL1        0.2312
     19 O           0.2366    1.5501   -1.8207 O.3     1  UNL1       -0.4606
     20 C           1.0329    0.4079   -1.6326 C.ar    1  UNL1        0.1310
     21 C           1.7772    0.3174   -0.4585 C.ar    1  UNL1        0.0235
     22 C           2.5815   -0.7944   -0.2027 C.ar    1  UNL1        0.1462
     23 C           2.6660   -1.8564   -1.1403 C.ar    1  UNL1        0.1055
     24 C           1.8831   -1.7755   -2.3294 C.ar    1  UNL1        0.1347
     25 O           1.8064   -2.7915   -3.2871 O.3     1  UNL1       -0.5058
     26 C           1.1078   -0.6351   -2.5708 C.ar    1  UNL1        0.0226
     27 C           3.5482   -2.9176   -0.8248 C.ar    1  UNL1        0.1966
     28 O           3.7550   -3.8725   -1.6172 O.2     1  UNL1       -0.2869
     29 C           4.2375   -2.9093    0.3884 C.ar    1  UNL1        0.0288
     30 C           4.0769   -1.8313    1.2693 C.ar    1  UNL1        0.1393
     31 O           3.2665   -0.8327    0.9351 O.2     1  UNL1       -0.4544
     32 C           4.7814   -1.7723    2.5751 C.ar    1  UNL1        0.0211
     33 C           6.0257   -2.3988    2.7717 C.ar    1  UNL1       -0.0474
     34 C           6.6706   -2.3185    4.0072 C.ar    1  UNL1       -0.0159
     35 C           6.0903   -1.6068    5.0636 C.ar    1  UNL1        0.1585
     36 O           6.7358   -1.5292    6.2967 O.3     1  UNL1       -0.5033
     37 C           4.8577   -0.9651    4.8854 C.ar    1  UNL1        0.1619
     38 O           4.3100   -0.2576    5.9673 O.3     1  UNL1       -0.4914
     39 C           3.0699    0.4413    5.9295 C.3     1  UNL1        0.0790
     40 C           4.2100   -1.0478    3.6368 C.ar    1  UNL1       -0.0057
     41 O          -1.3125   -1.4833   -0.7515 O.3     1  UNL1       -0.3457
     42 C          -1.0760   -2.8323   -0.4104 C.3     1  UNL1        0.0843
     43 C          -1.9729   -3.7434   -1.2533 C.3     1  UNL1        0.1425
     44 O          -3.1127   -4.0835   -0.4939 O.3     1  UNL1       -0.3812
     45 C          -1.2240   -5.0124   -1.7297 C.3     1  UNL1        0.0778
     46 O          -0.8170   -5.7892   -0.6347 O.3     1  UNL1       -0.3920
     47 C          -2.3419   -2.8253   -2.4059 C.3     1  UNL1        0.1387
     48 O          -3.6151   -3.0951   -2.9330 O.3     1  UNL1       -0.3837
     49 H          -3.2944   -1.2603   -1.2690 H       1  UNL1        0.0938
     50 H          -2.0647    0.8531   -1.0810 H       1  UNL1        0.0687
     51 H          -3.3657    1.6334   -3.7654 H       1  UNL1        0.0648
     52 H          -4.6648    0.1052   -2.9502 H       1  UNL1        0.2100
     53 H          -3.7807    2.8292   -0.9634 H       1  UNL1        0.0647
     54 H          -5.2774    3.4212   -2.4380 H       1  UNL1        0.2100
     55 H          -2.2097    4.6676   -2.4159 H       1  UNL1        0.0658
     56 H          -0.4093    4.2476   -0.7244 H       1  UNL1        0.0724
     57 H          -1.3064    2.8101   -0.1476 H       1  UNL1        0.0724
     58 H          -3.4481    6.3052    1.8733 H       1  UNL1        0.0493
     59 H          -3.1202    7.8026    0.9326 H       1  UNL1        0.0493
     60 H          -5.9688    7.4264   -1.2955 H       1  UNL1        0.2951
     61 H          -0.5791    1.2563   -3.7081 H       1  UNL1        0.1084
     62 H           1.7240    1.1185    0.2688 H       1  UNL1        0.0691
     63 H           2.0805   -3.7501   -3.1385 H       1  UNL1        0.2922
     64 H           0.5458   -0.5952   -3.4913 H       1  UNL1        0.0691
     65 H           4.8781   -3.7454    0.6382 H       1  UNL1        0.0693
     66 H           6.5180   -2.9303    1.9686 H       1  UNL1        0.0626
     67 H           7.6283   -2.8054    4.1409 H       1  UNL1        0.0655
     68 H           7.6284   -1.9812    6.4576 H       1  UNL1        0.2923
     69 H           3.1058    1.2417    5.1606 H       1  UNL1        0.0660
     70 H           2.2406   -0.2639    5.7101 H       1  UNL1        0.0660
     71 H           2.8866    0.9078    6.9190 H       1  UNL1        0.0660
     72 H           3.2554   -0.5606    3.4897 H       1  UNL1        0.0662
     73 H          -1.2676   -2.9768    0.6749 H       1  UNL1        0.0591
     74 H          -0.0011   -3.0493   -0.5863 H       1  UNL1        0.0591
     75 H          -3.6486   -4.7351   -1.0175 H       1  UNL1        0.2105
     76 H          -1.8717   -5.6116   -2.4101 H       1  UNL1        0.0587
     77 H          -0.3202   -4.7269   -2.3100 H       1  UNL1        0.0587
     78 H          -1.6116   -6.3052   -0.3388 H       1  UNL1        0.2095
     79 H          -1.5680   -2.8635   -3.2107 H       1  UNL1        0.0675
     80 H          -3.5152   -3.8969   -3.5093 H       1  UNL1        0.2101
@<TRIPOS>BOND
     1     1     2    1
     2     2     3    1
     3     3     4    1
     4     4     5    1
     5     4     6    1
     6     6     7    1
     7     6     8    1
     8     8     9    1
     9     9    10    1
    10    10    11    1
    11    11    12    2
    12    11    13    1
    13    13    14    1
    14    14    15    1
    15    14    16    2
    16     8    17    1
    17    17    18    1
    18    18    19    1
    19    19    20    1
    20    20    21   ar
    21    21    22   ar
    22    22    23   ar
    23    23    24   ar
    24    24    25    1
    25    24    26   ar
    26    23    27   ar
    27    27    28    2
    28    27    29   ar
    29    29    30   ar
    30    30    31   ar
    31    30    32    1
    32    32    33   ar
    33    33    34   ar
    34    34    35   ar
    35    35    36    1
    36    35    37   ar
    37    37    38    1
    38    38    39    1
    39    37    40   ar
    40     1    41    1
    41    41    42    1
    42    42    43    1
    43    43    44    1
    44    43    45    1
    45    45    46    1
    46    43    47    1
    47    47    48    1
    48    47     1    1
    49    18     3    1
    50    26    20   ar
    51    40    32   ar
    52    31    22   ar
    53     1    49    1
    54     3    50    1
    55     4    51    1
    56     5    52    1
    57     6    53    1
    58     7    54    1
    59     8    55    1
    60     9    56    1
    61     9    57    1
    62    13    58    1
    63    13    59    1
    64    15    60    1
    65    18    61    1
    66    21    62    1
    67    25    63    1
    68    26    64    1
    69    29    65    1
    70    33    66    1
    71    34    67    1
    72    36    68    1
    73    39    69    1
    74    39    70    1
    75    39    71    1
    76    40    72    1
    77    42    73    1
    78    42    74    1
    79    44    75    1
    80    45    76    1
    81    45    77    1
    82    46    78    1
    83    47    79    1
    84    48    80    1
