@<TRIPOS>MOLECULE
Chrysoeriol 7-O-glucoside
 55 58 0 0 0
SMALL
GASTEIGER

@<TRIPOS>ATOM
      1 C           5.8577    3.1622   -1.0323 C.3     1  UNL1        0.0790
      2 O           6.8431    2.1410   -0.9149 O.3     1  UNL1       -0.4914
      3 C           6.5841    0.8277   -0.4905 C.ar    1  UNL1        0.1619
      4 C           7.6514   -0.0848   -0.4210 C.ar    1  UNL1        0.1585
      5 O           8.9488    0.2958   -0.7640 O.3     1  UNL1       -0.5033
      6 C           7.4218   -1.3989   -0.0064 C.ar    1  UNL1       -0.0159
      7 C           6.1378   -1.8170    0.3461 C.ar    1  UNL1       -0.0474
      8 C           5.0570   -0.9183    0.2965 C.ar    1  UNL1        0.0211
      9 C           5.2892    0.4003   -0.1339 C.ar    1  UNL1       -0.0057
     10 C           3.6784   -1.3381    0.6550 C.ar    1  UNL1        0.1393
     11 C           3.4341   -2.3698    1.5762 C.ar    1  UNL1        0.0288
     12 C           2.1183   -2.7231    1.8780 C.ar    1  UNL1        0.1966
     13 O           1.9088   -3.6496    2.7070 O.2     1  UNL1       -0.2869
     14 C           1.0543   -2.0380    1.2575 C.ar    1  UNL1        0.1055
     15 C          -0.3057   -2.3334    1.5042 C.ar    1  UNL1        0.1347
     16 O          -0.6680   -3.3473    2.3924 O.3     1  UNL1       -0.5058
     17 C          -1.3085   -1.6015    0.8505 C.ar    1  UNL1        0.0226
     18 C          -0.9775   -0.5689   -0.0477 C.ar    1  UNL1        0.1310
     19 O          -1.9397    0.1952   -0.7317 O.3     1  UNL1       -0.4606
     20 C          -3.3560    0.1608   -0.5363 C.3     1  UNL1        0.2308
     21 O          -3.9614    0.6673   -1.7126 O.3     1  UNL1       -0.3313
     22 C          -5.3727    0.5411   -1.6522 C.3     1  UNL1        0.1140
     23 C          -5.9417    0.9474   -3.0219 C.3     1  UNL1        0.0731
     24 O          -7.3162    0.6804   -3.1029 O.3     1  UNL1       -0.3924
     25 C          -5.9362    1.4355   -0.5167 C.3     1  UNL1        0.1120
     26 O          -7.3344    1.3196   -0.4151 O.3     1  UNL1       -0.3865
     27 C          -5.2678    1.0757    0.8260 C.3     1  UNL1        0.1152
     28 O          -5.6171    2.0216    1.8036 O.3     1  UNL1       -0.3864
     29 C          -3.7389    1.0498    0.6664 C.3     1  UNL1        0.1454
     30 O          -3.1491    0.5535    1.8396 O.3     1  UNL1       -0.3829
     31 C           0.3690   -0.2856   -0.2909 C.ar    1  UNL1        0.0235
     32 C           1.3808   -1.0049    0.3496 C.ar    1  UNL1        0.1462
     33 O           2.6504   -0.7051    0.0943 O.2     1  UNL1       -0.4544
     34 H           5.3929    3.3601   -0.0433 H       1  UNL1        0.0660
     35 H           6.3424    4.0939   -1.3891 H       1  UNL1        0.0660
     36 H           5.0816    2.8616   -1.7675 H       1  UNL1        0.0660
     37 H           9.1728    1.2344   -1.0719 H       1  UNL1        0.2923
     38 H           8.2435   -2.1028    0.0358 H       1  UNL1        0.0655
     39 H           5.9940   -2.8502    0.6318 H       1  UNL1        0.0626
     40 H           4.4600    1.0936   -0.1777 H       1  UNL1        0.0662
     41 H           4.2472   -2.8793    2.0772 H       1  UNL1        0.0693
     42 H          -1.6384   -3.5709    2.5804 H       1  UNL1        0.2922
     43 H          -2.3384   -1.8505    1.0570 H       1  UNL1        0.0691
     44 H          -3.6827   -0.8913   -0.3779 H       1  UNL1        0.1084
     45 H          -5.6556   -0.5235   -1.4748 H       1  UNL1        0.0647
     46 H          -5.7752    2.0324   -3.1935 H       1  UNL1        0.0584
     47 H          -5.4038    0.3987   -3.8287 H       1  UNL1        0.0584
     48 H          -7.4095   -0.3022   -3.2096 H       1  UNL1        0.2095
     49 H          -5.6955    2.4964   -0.7514 H       1  UNL1        0.0647
     50 H          -7.5442    0.3677   -0.2253 H       1  UNL1        0.2100
     51 H          -5.5997    0.0586    1.1459 H       1  UNL1        0.0648
     52 H          -6.5307    1.7895    2.1152 H       1  UNL1        0.2100
     53 H          -3.3701    2.0838    0.4627 H       1  UNL1        0.0683
     54 H          -3.1162    1.3052    2.4872 H       1  UNL1        0.2102
     55 H           0.6315    0.5043   -0.9843 H       1  UNL1        0.0691
@<TRIPOS>BOND
     1     1     2    1
     2     2     3    1
     3     3     4   ar
     4     4     5    1
     5     4     6   ar
     6     6     7   ar
     7     7     8   ar
     8     8     9   ar
     9     8    10    1
    10    10    11   ar
    11    11    12   ar
    12    12    13    2
    13    12    14   ar
    14    14    15   ar
    15    15    16    1
    16    15    17   ar
    17    17    18   ar
    18    18    19    1
    19    19    20    1
    20    20    21    1
    21    21    22    1
    22    22    23    1
    23    23    24    1
    24    22    25    1
    25    25    26    1
    26    25    27    1
    27    27    28    1
    28    27    29    1
    29    29    30    1
    30    18    31   ar
    31    31    32   ar
    32    32    33   ar
    33     9     3   ar
    34    33    10   ar
    35    32    14   ar
    36    29    20    1
    37     1    34    1
    38     1    35    1
    39     1    36    1
    40     5    37    1
    41     6    38    1
    42     7    39    1
    43     9    40    1
    44    11    41    1
    45    16    42    1
    46    17    43    1
    47    20    44    1
    48    22    45    1
    49    23    46    1
    50    23    47    1
    51    24    48    1
    52    25    49    1
    53    26    50    1
    54    27    51    1
    55    28    52    1
    56    29    53    1
    57    30    54    1
    58    31    55    1
