@<TRIPOS>MOLECULE
Chrysoeriol 7-O-(6''-malonyl-glucoside)
 63 66 0 0 0
SMALL
GASTEIGER

@<TRIPOS>ATOM
      1 C           3.9751   -1.3734    0.8352 C.3     1  UNL1        0.1250
      2 C           4.2607   -2.2643   -0.3856 C.3     1  UNL1        0.1212
      3 O           5.6522   -2.2934   -0.7006 O.3     1  UNL1       -0.4616
      4 C           6.3241   -1.2347   -1.3219 C.2     1  UNL1        0.3180
      5 O           5.6967   -0.2142   -1.7173 O.2     1  UNL1       -0.2502
      6 C           7.7937   -1.3414   -1.5637 C.3     1  UNL1        0.1418
      7 C           8.0461   -2.0509   -2.8536 C.2     1  UNL1        0.3155
      8 O           8.1001   -1.3295   -4.0421 O.3     1  UNL1       -0.4802
      9 O           8.1708   -3.3048   -2.8711 O.2     1  UNL1       -0.2504
     10 O           2.5683   -1.2694    0.9753 O.3     1  UNL1       -0.3302
     11 C           2.2331   -0.3235    1.9759 C.3     1  UNL1        0.2308
     12 O           0.8174   -0.1448    1.9865 O.3     1  UNL1       -0.4606
     13 C           0.0687    0.4004    0.9313 C.ar    1  UNL1        0.1310
     14 C          -1.3142    0.4832    1.0796 C.ar    1  UNL1        0.0235
     15 C          -2.1153    0.9941    0.0566 C.ar    1  UNL1        0.1462
     16 C          -1.5347    1.4528   -1.1547 C.ar    1  UNL1        0.1055
     17 C          -0.1144    1.4184   -1.2827 C.ar    1  UNL1        0.1347
     18 O           0.5847    1.9285   -2.3811 O.3     1  UNL1       -0.5058
     19 C           0.6597    0.8681   -0.2536 C.ar    1  UNL1        0.0226
     20 C          -2.4260    1.8918   -2.1632 C.ar    1  UNL1        0.1966
     21 O          -2.0244    2.2447   -3.3021 O.2     1  UNL1       -0.2869
     22 C          -3.7987    1.9159   -1.9136 C.ar    1  UNL1        0.0288
     23 C          -4.2862    1.4699   -0.6777 C.ar    1  UNL1        0.1393
     24 O          -3.4309    1.0323    0.2402 O.2     1  UNL1       -0.4544
     25 C          -5.7358    1.4767   -0.3571 C.ar    1  UNL1        0.0211
     26 C          -6.1445    1.6015    0.9807 C.ar    1  UNL1       -0.0474
     27 C          -7.5005    1.6044    1.3111 C.ar    1  UNL1       -0.0159
     28 C          -8.4716    1.4728    0.3118 C.ar    1  UNL1        0.1585
     29 O          -9.8256    1.4782    0.6432 O.3     1  UNL1       -0.5033
     30 C          -8.0869    1.3313   -1.0281 C.ar    1  UNL1        0.1619
     31 O          -9.0909    1.1918   -1.9994 O.3     1  UNL1       -0.4914
     32 C          -8.8495    1.0432   -3.3949 C.3     1  UNL1        0.0790
     33 C          -6.7164    1.3295   -1.3578 C.ar    1  UNL1       -0.0057
     34 C           2.6823   -0.8371    3.3550 C.3     1  UNL1        0.1454
     35 O           2.3863    0.1134    4.3456 O.3     1  UNL1       -0.3829
     36 C           4.2000   -1.0916    3.3349 C.3     1  UNL1        0.1152
     37 O           4.6238   -1.6784    4.5406 O.3     1  UNL1       -0.3864
     38 C           4.5951   -1.9647    2.1250 C.3     1  UNL1        0.1130
     39 O           5.9947   -2.0000    2.0108 O.3     1  UNL1       -0.3864
     40 H           4.4164   -0.3696    0.6328 H       1  UNL1        0.0658
     41 H           3.9210   -3.3012   -0.1766 H       1  UNL1        0.0724
     42 H           3.6859   -1.8993   -1.2652 H       1  UNL1        0.0724
     43 H           8.2677   -1.8974   -0.7264 H       1  UNL1        0.0493
     44 H           8.2470   -0.3274   -1.6013 H       1  UNL1        0.0493
     45 H           8.2546   -1.7975   -4.9271 H       1  UNL1        0.2951
     46 H           2.7104    0.6654    1.7771 H       1  UNL1        0.1084
     47 H          -1.7741    0.1322    1.9956 H       1  UNL1        0.0691
     48 H           0.2068    2.5696   -3.0612 H       1  UNL1        0.2922
     49 H           1.7333    0.8369   -0.3810 H       1  UNL1        0.0691
     50 H          -4.4683    2.2929   -2.6762 H       1  UNL1        0.0693
     51 H          -5.4135    1.7100    1.7726 H       1  UNL1        0.0626
     52 H          -7.7964    1.7100    2.3471 H       1  UNL1        0.0655
     53 H         -10.1366    1.5775    1.6025 H       1  UNL1        0.2923
     54 H          -9.8209    0.9626   -3.9241 H       1  UNL1        0.0660
     55 H          -8.3048    1.9290   -3.7848 H       1  UNL1        0.0660
     56 H          -8.2639    0.1190   -3.5849 H       1  UNL1        0.0660
     57 H          -6.4156    1.1871   -2.3852 H       1  UNL1        0.0662
     58 H           2.1563   -1.7975    3.5726 H       1  UNL1        0.0683
     59 H           1.4257    0.0048    4.5718 H       1  UNL1        0.2102
     60 H           4.7163   -0.1099    3.2372 H       1  UNL1        0.0648
     61 H           4.1707   -2.5582    4.6238 H       1  UNL1        0.2100
     62 H           4.1942   -2.9970    2.2664 H       1  UNL1        0.0647
     63 H           6.3204   -2.6687    2.6682 H       1  UNL1        0.2100
@<TRIPOS>BOND
     1     1     2    1
     2     2     3    1
     3     3     4    1
     4     4     5    2
     5     4     6    1
     6     6     7    1
     7     7     8    1
     8     7     9    2
     9     1    10    1
    10    10    11    1
    11    11    12    1
    12    12    13    1
    13    13    14   ar
    14    14    15   ar
    15    15    16   ar
    16    16    17   ar
    17    17    18    1
    18    17    19   ar
    19    16    20   ar
    20    20    21    2
    21    20    22   ar
    22    22    23   ar
    23    23    24   ar
    24    23    25    1
    25    25    26   ar
    26    26    27   ar
    27    27    28   ar
    28    28    29    1
    29    28    30   ar
    30    30    31    1
    31    31    32    1
    32    30    33   ar
    33    11    34    1
    34    34    35    1
    35    34    36    1
    36    36    37    1
    37    36    38    1
    38    38    39    1
    39    38     1    1
    40    19    13   ar
    41    33    25   ar
    42    24    15   ar
    43     1    40    1
    44     2    41    1
    45     2    42    1
    46     6    43    1
    47     6    44    1
    48     8    45    1
    49    11    46    1
    50    14    47    1
    51    18    48    1
    52    19    49    1
    53    22    50    1
    54    26    51    1
    55    27    52    1
    56    29    53    1
    57    32    54    1
    58    32    55    1
    59    32    56    1
    60    33    57    1
    61    34    58    1
    62    35    59    1
    63    36    60    1
    64    37    61    1
    65    38    62    1
    66    39    63    1
