@<TRIPOS>MOLECULE
Apigenin 7-O-diglucuronide
 70 74 0 0 0
SMALL
GASTEIGER

@<TRIPOS>ATOM
      1 O          -4.8072   -2.6390    4.3537 O.3     1  UNL1       -0.3864
      2 C          -4.5180   -1.5766    3.4817 C.3     1  UNL1        0.1145
      3 C          -4.0456   -2.1258    2.1239 C.3     1  UNL1        0.1342
      4 O          -5.1178   -2.7736    1.4880 O.3     1  UNL1       -0.3841
      5 C          -3.5322   -0.9704    1.2433 C.3     1  UNL1        0.1892
      6 O          -3.0375   -1.5154    0.0355 O.3     1  UNL1       -0.3366
      7 C          -2.8742   -0.5134   -0.9574 C.3     1  UNL1        0.1520
      8 C          -4.0721   -0.5548   -1.9392 C.3     1  UNL1        0.1160
      9 O          -4.3004    0.7364   -2.4463 O.3     1  UNL1       -0.3863
     10 C          -3.7997   -1.5319   -3.1046 C.3     1  UNL1        0.1202
     11 O          -3.7539   -2.8493   -2.6153 O.3     1  UNL1       -0.3860
     12 C          -2.4409   -1.1957   -3.7975 C.3     1  UNL1        0.1869
     13 O          -1.6299   -0.3163   -3.0297 O.3     1  UNL1       -0.3221
     14 C          -1.5407   -0.7714   -1.6930 C.3     1  UNL1        0.2316
     15 O          -0.4977   -0.0662   -1.0209 O.3     1  UNL1       -0.4606
     16 C           0.8680   -0.1606   -1.3292 C.ar    1  UNL1        0.1310
     17 C           1.3584   -0.9916   -2.3528 C.ar    1  UNL1        0.0226
     18 C           2.7327   -1.0564   -2.6269 C.ar    1  UNL1        0.1347
     19 O           3.1874   -1.8900   -3.6497 O.3     1  UNL1       -0.5058
     20 C           3.6377   -0.2800   -1.8670 C.ar    1  UNL1        0.1055
     21 C           5.0314   -0.2941   -2.0762 C.ar    1  UNL1        0.1966
     22 O           5.5550   -1.0174   -2.9662 O.2     1  UNL1       -0.2869
     23 C           5.8553    0.5036   -1.2811 C.ar    1  UNL1        0.0288
     24 C           5.2822    1.3120   -0.2855 C.ar    1  UNL1        0.1392
     25 O           3.9631    1.2946   -0.1080 O.2     1  UNL1       -0.4544
     26 C           3.1375    0.5525   -0.8392 C.ar    1  UNL1        0.1462
     27 C           1.7656    0.6041   -0.5806 C.ar    1  UNL1        0.0235
     28 C           6.1085    2.1797    0.5914 C.ar    1  UNL1        0.0176
     29 C           7.3474    2.6992    0.1658 C.ar    1  UNL1       -0.0476
     30 C           8.0988    3.5221    1.0106 C.ar    1  UNL1       -0.0195
     31 C           7.6248    3.8449    2.2848 C.ar    1  UNL1        0.1169
     32 O           8.3856    4.6649    3.1150 O.3     1  UNL1       -0.5068
     33 C           6.3894    3.3442    2.7127 C.ar    1  UNL1       -0.0195
     34 C           5.6345    2.5219    1.8711 C.ar    1  UNL1       -0.0476
     35 C          -2.6782   -0.5706   -5.1411 C.2     1  UNL1        0.3367
     36 O          -2.6282   -1.3564   -6.2884 O.3     1  UNL1       -0.4788
     37 O          -2.9625    0.6542   -5.2311 O.2     1  UNL1       -0.2480
     38 O          -2.4767   -0.2897    1.9031 O.3     1  UNL1       -0.3315
     39 C          -2.9512    0.3530    3.0729 C.3     1  UNL1        0.1859
     40 C          -3.4264   -0.6897    4.1060 C.3     1  UNL1        0.1201
     41 O          -3.9375   -0.0310    5.2372 O.3     1  UNL1       -0.3860
     42 C          -1.8407    1.1816    3.6483 C.2     1  UNL1        0.3367
     43 O          -2.1067    2.4622    4.1234 O.3     1  UNL1       -0.4788
     44 O          -0.6745    0.7101    3.7331 O.2     1  UNL1       -0.2480
     45 H          -5.7041   -2.9826    4.1022 H       1  UNL1        0.2100
     46 H          -5.4315   -0.9525    3.3275 H       1  UNL1        0.0648
     47 H          -3.2127   -2.8475    2.3027 H       1  UNL1        0.0671
     48 H          -4.7254   -3.3904    0.8162 H       1  UNL1        0.2101
     49 H          -4.3898   -0.2821    1.0338 H       1  UNL1        0.0938
     50 H          -2.8199    0.5175   -0.5250 H       1  UNL1        0.0687
     51 H          -4.9815   -0.8875   -1.3849 H       1  UNL1        0.0648
     52 H          -5.2108    0.7343   -2.8427 H       1  UNL1        0.2100
     53 H          -4.6379   -1.4576   -3.8390 H       1  UNL1        0.0652
     54 H          -4.6875   -3.1130   -2.4035 H       1  UNL1        0.2100
     55 H          -1.8714   -2.1363   -3.9789 H       1  UNL1        0.0742
     56 H          -1.2997   -1.8617   -1.6580 H       1  UNL1        0.1084
     57 H           0.6826   -1.5942   -2.9435 H       1  UNL1        0.0691
     58 H           2.5507   -2.4518   -4.2029 H       1  UNL1        0.2922
     59 H           6.9272    0.4668   -1.4266 H       1  UNL1        0.0693
     60 H           1.3927    1.2444    0.2097 H       1  UNL1        0.0691
     61 H           7.7294    2.4952   -0.8252 H       1  UNL1        0.0626
     62 H           9.0485    3.9156    0.6710 H       1  UNL1        0.0654
     63 H           8.0689    4.9179    4.0437 H       1  UNL1        0.2921
     64 H           6.0127    3.5913    3.6971 H       1  UNL1        0.0654
     65 H           4.6838    2.1435    2.2263 H       1  UNL1        0.0626
     66 H          -2.8018   -0.9539   -7.2016 H       1  UNL1        0.2951
     67 H          -3.7895    1.0451    2.8223 H       1  UNL1        0.0741
     68 H          -2.5564   -1.3284    4.3936 H       1  UNL1        0.0652
     69 H          -3.9186   -0.6848    5.9840 H       1  UNL1        0.2100
     70 H          -1.3710    3.0297    4.5268 H       1  UNL1        0.2951
@<TRIPOS>BOND
     1     1     2    1
     2     2     3    1
     3     3     4    1
     4     3     5    1
     5     5     6    1
     6     6     7    1
     7     7     8    1
     8     8     9    1
     9     8    10    1
    10    10    11    1
    11    10    12    1
    12    12    13    1
    13    13    14    1
    14    14    15    1
    15    15    16    1
    16    16    17   ar
    17    17    18   ar
    18    18    19    1
    19    18    20   ar
    20    20    21   ar
    21    21    22    2
    22    21    23   ar
    23    23    24   ar
    24    24    25   ar
    25    25    26   ar
    26    26    27   ar
    27    24    28    1
    28    28    29   ar
    29    29    30   ar
    30    30    31   ar
    31    31    32    1
    32    31    33   ar
    33    33    34   ar
    34    12    35    1
    35    35    36    1
    36    35    37    2
    37     5    38    1
    38    38    39    1
    39    39    40    1
    40    40    41    1
    41    39    42    1
    42    42    43    1
    43    42    44    2
    44    40     2    1
    45    14     7    1
    46    27    16   ar
    47    34    28   ar
    48    26    20   ar
    49     1    45    1
    50     2    46    1
    51     3    47    1
    52     4    48    1
    53     5    49    1
    54     7    50    1
    55     8    51    1
    56     9    52    1
    57    10    53    1
    58    11    54    1
    59    12    55    1
    60    14    56    1
    61    17    57    1
    62    19    58    1
    63    23    59    1
    64    27    60    1
    65    29    61    1
    66    30    62    1
    67    32    63    1
    68    33    64    1
    69    34    65    1
    70    36    66    1
    71    39    67    1
    72    40    68    1
    73    41    69    1
    74    43    70    1
