@<TRIPOS>MOLECULE
Rhoifolin 4'-O-glucoside
 92 97 0 0 0
SMALL
GASTEIGER

@<TRIPOS>ATOM
      1 C          -4.5528   -2.1593    0.6502 C.3     1  UNL1       -0.0361
      2 C          -5.2995   -1.6684   -0.5909 C.3     1  UNL1        0.0873
      3 O          -4.3711   -0.9957   -1.4278 O.3     1  UNL1       -0.3431
      4 C          -5.0011   -0.4144   -2.5615 C.3     1  UNL1        0.1885
      5 O          -5.9851    0.5391   -2.1754 O.3     1  UNL1       -0.3366
      6 C          -5.4443    1.8415   -1.9927 C.3     1  UNL1        0.1519
      7 C          -6.5992    2.8635   -2.1158 C.3     1  UNL1        0.1155
      8 O          -6.1101    4.0621   -2.6673 O.3     1  UNL1       -0.3863
      9 C          -7.2134    3.1304   -0.7299 C.3     1  UNL1        0.1120
     10 O          -8.2756    4.0448   -0.8259 O.3     1  UNL1       -0.3865
     11 C          -6.1185    3.6909    0.2209 C.3     1  UNL1        0.1140
     12 C          -6.4261    3.3802    1.6926 C.3     1  UNL1        0.0731
     13 O          -5.4646    3.9825    2.5141 O.3     1  UNL1       -0.3924
     14 O          -4.7954    3.2818   -0.1198 O.3     1  UNL1       -0.3313
     15 C          -4.7528    1.9511   -0.6060 C.3     1  UNL1        0.2312
     16 O          -3.3899    1.5493   -0.7379 O.3     1  UNL1       -0.4606
     17 C          -2.5224    1.2738    0.3300 C.ar    1  UNL1        0.1310
     18 C          -1.2351    0.8222    0.0317 C.ar    1  UNL1        0.0235
     19 C          -0.3312    0.5149    1.0518 C.ar    1  UNL1        0.1462
     20 C          -0.7097    0.6611    2.4065 C.ar    1  UNL1        0.1055
     21 C          -2.0105    1.1223    2.7126 C.ar    1  UNL1        0.1347
     22 O          -2.4219    1.2814    4.0366 O.3     1  UNL1       -0.5058
     23 C          -2.9039    1.4248    1.6749 C.ar    1  UNL1        0.0226
     24 C           0.2427    0.3284    3.3905 C.ar    1  UNL1        0.1966
     25 O          -0.0222    0.4221    4.6195 O.2     1  UNL1       -0.2869
     26 C           1.5060   -0.1199    3.0026 C.ar    1  UNL1        0.0288
     27 C           1.8106   -0.2295    1.6358 C.ar    1  UNL1        0.1392
     28 O           0.8848    0.0839    0.7321 O.2     1  UNL1       -0.4544
     29 C           3.1366   -0.7023    1.1640 C.ar    1  UNL1        0.0176
     30 C           3.2430   -1.3220   -0.0929 C.ar    1  UNL1       -0.0476
     31 C           4.4808   -1.7680   -0.5636 C.ar    1  UNL1       -0.0192
     32 C           5.6379   -1.5963    0.2020 C.ar    1  UNL1        0.1240
     33 O           6.8549   -2.0627   -0.3193 O.3     1  UNL1       -0.4608
     34 C           8.1253   -1.9206    0.3175 C.3     1  UNL1        0.2308
     35 O           8.4533   -0.5460    0.4131 O.3     1  UNL1       -0.3313
     36 C           9.5271   -0.3543    1.3248 C.3     1  UNL1        0.1140
     37 C           9.8641    1.1447    1.3739 C.3     1  UNL1        0.0731
     38 O          10.2058    1.6197    0.1014 O.3     1  UNL1       -0.3924
     39 C          10.7495   -1.2876    1.0076 C.3     1  UNL1        0.1120
     40 O          11.9976   -0.6518    1.1527 O.3     1  UNL1       -0.3865
     41 C          10.6113   -2.0016   -0.3618 C.3     1  UNL1        0.1152
     42 O          10.8747   -1.1268   -1.4339 O.3     1  UNL1       -0.3864
     43 C           9.2166   -2.6771   -0.4898 C.3     1  UNL1        0.1454
     44 O           8.8604   -2.8541   -1.8409 O.3     1  UNL1       -0.3829
     45 C           5.5414   -0.9664    1.4566 C.ar    1  UNL1       -0.0192
     46 C           4.3038   -0.5202    1.9299 C.ar    1  UNL1       -0.0476
     47 C          -5.6461   -1.5007   -3.4479 C.3     1  UNL1        0.1341
     48 O          -4.6487   -2.3343   -3.9841 O.3     1  UNL1       -0.3841
     49 C          -6.6357   -2.3424   -2.6283 C.3     1  UNL1        0.1140
     50 O          -7.0849   -3.4242   -3.4035 O.3     1  UNL1       -0.3864
     51 C          -5.9571   -2.8515   -1.3412 C.3     1  UNL1        0.1095
     52 O          -6.8856   -3.5207   -0.5228 O.3     1  UNL1       -0.3866
     53 H          -3.7541   -2.8770    0.3647 H       1  UNL1        0.0255
     54 H          -4.0845   -1.2974    1.1707 H       1  UNL1        0.0255
     55 H          -5.2519   -2.6531    1.3578 H       1  UNL1        0.0255
     56 H          -6.0884   -0.9667   -0.2365 H       1  UNL1        0.0621
     57 H          -4.2033    0.0475   -3.1868 H       1  UNL1        0.0938
     58 H          -4.7134    2.0959   -2.7964 H       1  UNL1        0.0687
     59 H          -7.3821    2.4414   -2.7906 H       1  UNL1        0.0648
     60 H          -6.8911    4.5526   -3.0347 H       1  UNL1        0.2100
     61 H          -7.5965    2.1625   -0.3256 H       1  UNL1        0.0647
     62 H          -9.0366    3.5574   -1.2371 H       1  UNL1        0.2100
     63 H          -6.1329    4.7991    0.1191 H       1  UNL1        0.0647
     64 H          -6.4307    2.2807    1.8619 H       1  UNL1        0.0584
     65 H          -7.4327    3.7797    1.9498 H       1  UNL1        0.0584
     66 H          -5.6944    3.7224    3.4439 H       1  UNL1        0.2095
     67 H          -5.2580    1.2603    0.1054 H       1  UNL1        0.1084
     68 H          -0.9370    0.7027   -1.0028 H       1  UNL1        0.0691
     69 H          -3.3511    1.6116    4.2704 H       1  UNL1        0.2922
     70 H          -3.8938    1.7716    1.9296 H       1  UNL1        0.0691
     71 H           2.2235   -0.4019    3.7623 H       1  UNL1        0.0693
     72 H           2.3651   -1.4731   -0.7090 H       1  UNL1        0.0626
     73 H           4.5415   -2.2495   -1.5315 H       1  UNL1        0.0654
     74 H           8.0496   -2.3849    1.3305 H       1  UNL1        0.1084
     75 H           9.1685   -0.6028    2.3514 H       1  UNL1        0.0647
     76 H           8.9708    1.6981    1.7418 H       1  UNL1        0.0584
     77 H          10.6950    1.3287    2.0913 H       1  UNL1        0.0584
     78 H          10.4224    2.5813    0.2151 H       1  UNL1        0.2095
     79 H          10.7289   -2.0984    1.7702 H       1  UNL1        0.0647
     80 H          12.1312   -0.0463    0.3797 H       1  UNL1        0.2100
     81 H          11.3819   -2.8026   -0.4053 H       1  UNL1        0.0648
     82 H          10.1767   -0.4241   -1.4379 H       1  UNL1        0.2100
     83 H           9.2965   -3.6936   -0.0443 H       1  UNL1        0.0683
     84 H           8.5963   -1.9701   -2.2066 H       1  UNL1        0.2102
     85 H           6.4153   -0.8105    2.0735 H       1  UNL1        0.0654
     86 H           4.2725   -0.0121    2.8842 H       1  UNL1        0.0626
     87 H          -6.2085   -1.0094   -4.2769 H       1  UNL1        0.0671
     88 H          -4.2337   -1.8389   -4.7379 H       1  UNL1        0.2101
     89 H          -7.5011   -1.6904   -2.3592 H       1  UNL1        0.0648
     90 H          -7.9276   -3.7457   -2.9887 H       1  UNL1        0.2100
     91 H          -5.1634   -3.5785   -1.6239 H       1  UNL1        0.0646
     92 H          -7.5826   -2.8645   -0.2585 H       1  UNL1        0.2100
@<TRIPOS>BOND
     1     1     2    1
     2     2     3    1
     3     3     4    1
     4     4     5    1
     5     5     6    1
     6     6     7    1
     7     7     8    1
     8     7     9    1
     9     9    10    1
    10     9    11    1
    11    11    12    1
    12    12    13    1
    13    11    14    1
    14    14    15    1
    15    15    16    1
    16    16    17    1
    17    17    18   ar
    18    18    19   ar
    19    19    20   ar
    20    20    21   ar
    21    21    22    1
    22    21    23   ar
    23    20    24   ar
    24    24    25    2
    25    24    26   ar
    26    26    27   ar
    27    27    28   ar
    28    27    29    1
    29    29    30   ar
    30    30    31   ar
    31    31    32   ar
    32    32    33    1
    33    33    34    1
    34    34    35    1
    35    35    36    1
    36    36    37    1
    37    37    38    1
    38    36    39    1
    39    39    40    1
    40    39    41    1
    41    41    42    1
    42    41    43    1
    43    43    44    1
    44    32    45   ar
    45    45    46   ar
    46     4    47    1
    47    47    48    1
    48    47    49    1
    49    49    50    1
    50    49    51    1
    51    51    52    1
    52    51     2    1
    53    15     6    1
    54    23    17   ar
    55    46    29   ar
    56    28    19   ar
    57    43    34    1
    58     1    53    1
    59     1    54    1
    60     1    55    1
    61     2    56    1
    62     4    57    1
    63     6    58    1
    64     7    59    1
    65     8    60    1
    66     9    61    1
    67    10    62    1
    68    11    63    1
    69    12    64    1
    70    12    65    1
    71    13    66    1
    72    15    67    1
    73    18    68    1
    74    22    69    1
    75    23    70    1
    76    26    71    1
    77    30    72    1
    78    31    73    1
    79    34    74    1
    80    36    75    1
    81    37    76    1
    82    37    77    1
    83    38    78    1
    84    39    79    1
    85    40    80    1
    86    41    81    1
    87    42    82    1
    88    43    83    1
    89    44    84    1
    90    45    85    1
    91    46    86    1
    92    47    87    1
    93    48    88    1
    94    49    89    1
    95    50    90    1
    96    51    91    1
    97    52    92    1
