@<TRIPOS>MOLECULE
Kaempferol
 31 33 0 0 0
SMALL
GASTEIGER

@<TRIPOS>ATOM
      1 O           5.9587    0.0551    1.4136 O.3     1  UNL1       -0.5068
      2 C           4.6288    0.0885    1.0004 C.ar    1  UNL1        0.1169
      3 C           4.2859   -0.1934   -0.3283 C.ar    1  UNL1       -0.0195
      4 C           2.9478   -0.1555   -0.7323 C.ar    1  UNL1       -0.0475
      5 C           1.9366    0.1788    0.1872 C.ar    1  UNL1        0.0213
      6 C           2.2875    0.4395    1.5224 C.ar    1  UNL1       -0.0475
      7 C           3.6265    0.4017    1.9232 C.ar    1  UNL1       -0.0195
      8 C           0.5100    0.2011   -0.2087 C.ar    1  UNL1        0.1806
      9 C           0.0785    0.7739   -1.4208 C.ar    1  UNL1        0.2082
     10 O           0.9955    1.3895   -2.2767 O.3     1  UNL1       -0.5007
     11 C          -1.2885    0.7416   -1.7375 C.ar    1  UNL1        0.2379
     12 O          -1.6853    1.2416   -2.8252 O.2     1  UNL1       -0.2830
     13 C          -2.2000    0.1587   -0.8333 C.ar    1  UNL1        0.1092
     14 C          -3.5933    0.0893   -1.0750 C.ar    1  UNL1        0.1348
     15 O          -4.1445    0.5986   -2.2515 O.3     1  UNL1       -0.5058
     16 C          -4.4364   -0.4990   -0.1206 C.ar    1  UNL1        0.0223
     17 C          -3.9158   -1.0170    1.0674 C.ar    1  UNL1        0.1239
     18 O          -4.7751   -1.5952    1.9992 O.3     1  UNL1       -0.5065
     19 C          -2.5402   -0.9519    1.3115 C.ar    1  UNL1        0.0231
     20 C          -1.6830   -0.3711    0.3723 C.ar    1  UNL1        0.1465
     21 O          -0.3803   -0.3266    0.6265 O.2     1  UNL1       -0.4507
     22 H           6.7077   -0.1700    0.7692 H       1  UNL1        0.2921
     23 H           5.0541   -0.4506   -1.0464 H       1  UNL1        0.0654
     24 H           2.7040   -0.4121   -1.7551 H       1  UNL1        0.0626
     25 H           1.5255    0.6841    2.2524 H       1  UNL1        0.0626
     26 H           3.8852    0.6146    2.9527 H       1  UNL1        0.0654
     27 H           0.7179    1.8190   -3.1510 H       1  UNL1        0.2924
     28 H          -5.1400    0.5551   -2.4362 H       1  UNL1        0.2922
     29 H          -5.5026   -0.5538   -0.3020 H       1  UNL1        0.0691
     30 H          -4.4300   -1.9803    2.8707 H       1  UNL1        0.2921
     31 H          -2.1349   -1.3542    2.2319 H       1  UNL1        0.0691
@<TRIPOS>BOND
     1     1     2    1
     2     2     3   ar
     3     3     4   ar
     4     4     5   ar
     5     5     6   ar
     6     6     7   ar
     7     5     8    1
     8     8     9   ar
     9     9    10    1
    10     9    11   ar
    11    11    12    2
    12    11    13   ar
    13    13    14   ar
    14    14    15    1
    15    14    16   ar
    16    16    17   ar
    17    17    18    1
    18    17    19   ar
    19    19    20   ar
    20    20    21   ar
    21     7     2   ar
    22    21     8   ar
    23    20    13   ar
    24     1    22    1
    25     3    23    1
    26     4    24    1
    27     6    25    1
    28     7    26    1
    29    10    27    1
    30    15    28    1
    31    16    29    1
    32    18    30    1
    33    19    31    1
