@<TRIPOS>MOLECULE
Quercetin
 32 34 0 0 0
SMALL
GASTEIGER

@<TRIPOS>ATOM
      1 O          -4.3600   -3.1074    1.4286 O.3     1  UNL1       -0.5065
      2 C          -3.7251   -1.9693    0.9361 C.ar    1  UNL1        0.1239
      3 C          -4.4714   -0.8659    0.5070 C.ar    1  UNL1        0.0223
      4 C          -3.8318    0.2795    0.0102 C.ar    1  UNL1        0.1348
      5 O          -4.6028    1.3637   -0.4112 O.3     1  UNL1       -0.5058
      6 C          -2.4181    0.3207   -0.0573 C.ar    1  UNL1        0.1092
      7 C          -1.6749   -0.8002    0.3815 C.ar    1  UNL1        0.1465
      8 O          -0.3476   -0.7909    0.3365 O.2     1  UNL1       -0.4507
      9 C           0.3616    0.2423   -0.1087 C.ar    1  UNL1        0.1807
     10 C          -0.2991    1.3897   -0.5887 C.ar    1  UNL1        0.2082
     11 O           0.4323    2.4554   -1.1193 O.3     1  UNL1       -0.5007
     12 C          -1.7017    1.4299   -0.5517 C.ar    1  UNL1        0.2379
     13 O          -2.3039    2.4566   -0.9686 O.2     1  UNL1       -0.2830
     14 C           1.8380    0.1319   -0.0968 C.ar    1  UNL1        0.0247
     15 C           2.6493    1.1990    0.3299 C.ar    1  UNL1       -0.0057
     16 C           4.0452    1.0650    0.3558 C.ar    1  UNL1        0.1589
     17 O           4.8480    2.1254    0.7726 O.3     1  UNL1       -0.5033
     18 C           4.6383   -0.1422   -0.0339 C.ar    1  UNL1        0.1583
     19 O           6.0259   -0.2704   -0.0104 O.3     1  UNL1       -0.5033
     20 C           3.8334   -1.2145   -0.4398 C.ar    1  UNL1       -0.0159
     21 C           2.4427   -1.0810   -0.4636 C.ar    1  UNL1       -0.0473
     22 C          -2.3313   -1.9328    0.8718 C.ar    1  UNL1        0.0231
     23 H          -5.3698   -3.1666    1.4889 H       1  UNL1        0.2921
     24 H          -5.5525   -0.8984    0.5589 H       1  UNL1        0.0691
     25 H          -5.6152    1.3467   -0.3681 H       1  UNL1        0.2922
     26 H          -0.0112    3.2910   -1.4812 H       1  UNL1        0.2924
     27 H           2.2025    2.1258    0.6667 H       1  UNL1        0.0662
     28 H           4.4491    3.0110    1.0615 H       1  UNL1        0.2923
     29 H           6.4833   -1.1319   -0.2852 H       1  UNL1        0.2923
     30 H           4.2848   -2.1528   -0.7360 H       1  UNL1        0.0655
     31 H           1.8378   -1.9218   -0.7808 H       1  UNL1        0.0626
     32 H          -1.7557   -2.7876    1.2056 H       1  UNL1        0.0691
@<TRIPOS>BOND
     1     1     2    1
     2     2     3   ar
     3     3     4   ar
     4     4     5    1
     5     4     6   ar
     6     6     7   ar
     7     7     8   ar
     8     8     9   ar
     9     9    10   ar
    10    10    11    1
    11    10    12   ar
    12    12    13    2
    13     9    14    1
    14    14    15   ar
    15    15    16   ar
    16    16    17    1
    17    16    18   ar
    18    18    19    1
    19    18    20   ar
    20    20    21   ar
    21     7    22   ar
    22    22     2   ar
    23    12     6   ar
    24    21    14   ar
    25     1    23    1
    26     3    24    1
    27     5    25    1
    28    11    26    1
    29    15    27    1
    30    17    28    1
    31    19    29    1
    32    20    30    1
    33    21    31    1
    34    22    32    1
