@<TRIPOS>MOLECULE
Quercetin 3-O-galactoside
 53 56 0 0 0
SMALL
GASTEIGER

@<TRIPOS>ATOM
      1 O           2.0491    0.7384    2.4794 O.3     1  UNL1       -0.3924
      2 C           2.9999    0.9065    1.4626 C.3     1  UNL1        0.0731
      3 C           2.7675   -0.1138    0.3390 C.3     1  UNL1        0.1140
      4 O           1.4750    0.0908   -0.2021 O.3     1  UNL1       -0.3313
      5 C           1.1399   -0.9418   -1.1134 C.3     1  UNL1        0.2311
      6 O          -0.1950   -0.7426   -1.5733 O.3     1  UNL1       -0.4532
      7 C          -1.2919   -0.7879   -0.7065 C.ar    1  UNL1        0.2138
      8 C          -1.6815    0.3410    0.0371 C.ar    1  UNL1        0.1810
      9 O          -2.6752    0.2397    0.9117 O.2     1  UNL1       -0.4507
     10 C          -3.3735   -0.8745    1.0983 C.ar    1  UNL1        0.1465
     11 C          -4.3823   -0.8762    2.0645 C.ar    1  UNL1        0.0231
     12 C          -5.1322   -2.0256    2.3013 C.ar    1  UNL1        0.1239
     13 O          -6.1200   -2.0112    3.2836 O.3     1  UNL1       -0.5065
     14 C          -4.8939   -3.1774    1.5473 C.ar    1  UNL1        0.0223
     15 C          -3.9135   -3.1962    0.5475 C.ar    1  UNL1        0.1348
     16 O          -3.8174   -4.3673   -0.2101 O.3     1  UNL1       -0.5058
     17 C          -3.1004   -2.0423    0.3378 C.ar    1  UNL1        0.1092
     18 C          -2.0027   -1.9834   -0.5540 C.ar    1  UNL1        0.2382
     19 O          -1.6146   -2.9952   -1.1944 O.2     1  UNL1       -0.2830
     20 C          -0.9928    1.6438   -0.0943 C.ar    1  UNL1        0.0247
     21 C          -0.6683    2.3736    1.0600 C.ar    1  UNL1       -0.0057
     22 C           0.0304    3.5856    0.9638 C.ar    1  UNL1        0.1589
     23 O           0.3710    4.2907    2.1170 O.3     1  UNL1       -0.5033
     24 C           0.3911    4.0849   -0.2990 C.ar    1  UNL1        0.1583
     25 O           1.0898    5.2847   -0.4276 O.3     1  UNL1       -0.5033
     26 C           0.0455    3.3725   -1.4514 C.ar    1  UNL1       -0.0159
     27 C          -0.6465    2.1630   -1.3535 C.ar    1  UNL1       -0.0473
     28 C           2.0883   -0.9156   -2.3298 C.3     1  UNL1        0.1454
     29 O           1.7722   -1.9467   -3.2322 O.3     1  UNL1       -0.3829
     30 C           3.5575   -1.0168   -1.8667 C.3     1  UNL1        0.1152
     31 O           4.4268   -0.8070   -2.9498 O.3     1  UNL1       -0.3864
     32 C           3.8365    0.0240   -0.7670 C.3     1  UNL1        0.1120
     33 O           3.7976    1.3233   -1.3059 O.3     1  UNL1       -0.3865
     34 H           2.3218   -0.0655    2.9941 H       1  UNL1        0.2095
     35 H           2.9015    1.9382    1.0621 H       1  UNL1        0.0584
     36 H           4.0280    0.7977    1.8779 H       1  UNL1        0.0584
     37 H           2.8448   -1.1282    0.7978 H       1  UNL1        0.0647
     38 H           1.1909   -1.9368   -0.6115 H       1  UNL1        0.1084
     39 H          -4.5764    0.0190    2.6428 H       1  UNL1        0.0691
     40 H          -6.6849   -2.8294    3.4793 H       1  UNL1        0.2921
     41 H          -5.4964   -4.0611    1.7182 H       1  UNL1        0.0691
     42 H          -3.3735   -4.4337   -1.1133 H       1  UNL1        0.2922
     43 H          -0.9314    1.9866    2.0372 H       1  UNL1        0.0662
     44 H           0.1271    3.9492    3.0394 H       1  UNL1        0.2923
     45 H           1.3637    5.8366    0.3764 H       1  UNL1        0.2923
     46 H           0.3145    3.7579   -2.4266 H       1  UNL1        0.0655
     47 H          -0.9136    1.6366   -2.2609 H       1  UNL1        0.0626
     48 H           1.9487    0.0543   -2.8571 H       1  UNL1        0.0683
     49 H           1.8861   -2.8102   -2.7550 H       1  UNL1        0.2102
     50 H           3.7398   -2.0289   -1.4320 H       1  UNL1        0.0648
     51 H           4.4383   -1.6484   -3.4766 H       1  UNL1        0.2100
     52 H           4.8397   -0.1795   -0.3222 H       1  UNL1        0.0647
     53 H           4.6948    1.5046   -1.6901 H       1  UNL1        0.2100
@<TRIPOS>BOND
     1     1     2    1
     2     2     3    1
     3     3     4    1
     4     4     5    1
     5     5     6    1
     6     6     7    1
     7     7     8   ar
     8     8     9   ar
     9     9    10   ar
    10    10    11   ar
    11    11    12   ar
    12    12    13    1
    13    12    14   ar
    14    14    15   ar
    15    15    16    1
    16    15    17   ar
    17    17    18   ar
    18    18    19    2
    19     8    20    1
    20    20    21   ar
    21    21    22   ar
    22    22    23    1
    23    22    24   ar
    24    24    25    1
    25    24    26   ar
    26    26    27   ar
    27     5    28    1
    28    28    29    1
    29    28    30    1
    30    30    31    1
    31    30    32    1
    32    32    33    1
    33    32     3    1
    34    18     7   ar
    35    27    20   ar
    36    17    10   ar
    37     1    34    1
    38     2    35    1
    39     2    36    1
    40     3    37    1
    41     5    38    1
    42    11    39    1
    43    13    40    1
    44    14    41    1
    45    16    42    1
    46    21    43    1
    47    23    44    1
    48    25    45    1
    49    26    46    1
    50    27    47    1
    51    28    48    1
    52    29    49    1
    53    30    50    1
    54    31    51    1
    55    32    52    1
    56    33    53    1
