@<TRIPOS>MOLECULE
Quercetin 3-O-glucoside
 53 56 0 0 0
SMALL
GASTEIGER

@<TRIPOS>ATOM
      1 O          -2.8309   -1.8650    3.3254 O.3     1  UNL1       -0.3924
      2 C          -1.8690   -1.7683    2.3097 C.3     1  UNL1        0.0731
      3 C          -2.3466   -0.8506    1.1722 C.3     1  UNL1        0.1140
      4 O          -1.2588   -0.6674    0.2852 O.3     1  UNL1       -0.3313
      5 C          -1.5717    0.2821   -0.7180 C.3     1  UNL1        0.2311
      6 O          -0.4099    0.5175   -1.5103 O.3     1  UNL1       -0.4532
      7 C           0.7461    1.0967   -0.9766 C.ar    1  UNL1        0.2138
      8 C           1.7137    0.3189   -0.3145 C.ar    1  UNL1        0.1810
      9 O           2.7578    0.9131    0.2508 O.2     1  UNL1       -0.4507
     10 C           2.9769    2.2215    0.1879 C.ar    1  UNL1        0.1465
     11 C           4.0954    2.7433    0.8420 C.ar    1  UNL1        0.0231
     12 C           4.3579    4.1106    0.8116 C.ar    1  UNL1        0.1239
     13 O           5.4679    4.6123    1.4877 O.3     1  UNL1       -0.5065
     14 C           3.5128    4.9639    0.0977 C.ar    1  UNL1        0.0223
     15 C           2.4036    4.4664   -0.5975 C.ar    1  UNL1        0.1348
     16 O           1.6762    5.3897   -1.3544 O.3     1  UNL1       -0.5058
     17 C           2.0931    3.0754   -0.5236 C.ar    1  UNL1        0.1092
     18 C           0.9360    2.4792   -1.0794 C.ar    1  UNL1        0.2382
     19 O           0.0403    3.1654   -1.6373 O.2     1  UNL1       -0.2830
     20 C           1.5925   -1.1509   -0.1921 C.ar    1  UNL1        0.0247
     21 C           1.1892   -1.9450   -1.2803 C.ar    1  UNL1       -0.0057
     22 C           1.0380   -3.3285   -1.1343 C.ar    1  UNL1        0.1589
     23 O           0.6212   -4.0834   -2.2301 O.3     1  UNL1       -0.5033
     24 C           1.3060   -3.9341    0.1048 C.ar    1  UNL1        0.1583
     25 O           1.1501   -5.3106    0.2589 O.3     1  UNL1       -0.5033
     26 C           1.7329   -3.1485    1.1836 C.ar    1  UNL1       -0.0159
     27 C           1.8822   -1.7677    1.0344 C.ar    1  UNL1       -0.0473
     28 C          -2.6914   -0.2547   -1.6279 C.3     1  UNL1        0.1454
     29 O          -3.0241    0.7060   -2.5971 O.3     1  UNL1       -0.3829
     30 C          -3.9356   -0.5766   -0.7837 C.3     1  UNL1        0.1152
     31 O          -4.8906   -1.2441   -1.5679 O.3     1  UNL1       -0.3864
     32 C          -3.5494   -1.4679    0.4112 C.3     1  UNL1        0.1120
     33 O          -4.6567   -1.6564    1.2579 O.3     1  UNL1       -0.3865
     34 H          -2.8019   -1.0087    3.8270 H       1  UNL1        0.2095
     35 H          -1.6599   -2.7848    1.9125 H       1  UNL1        0.0584
     36 H          -0.9143   -1.3769    2.7308 H       1  UNL1        0.0584
     37 H          -2.6395    0.1260    1.6249 H       1  UNL1        0.0647
     38 H          -1.8864    1.2510   -0.2629 H       1  UNL1        0.1084
     39 H           4.7583    2.0823    1.3871 H       1  UNL1        0.0691
     40 H           5.6888    5.6013    1.4836 H       1  UNL1        0.2921
     41 H           3.7351    6.0232    0.0565 H       1  UNL1        0.0691
     42 H           1.0465    5.1500   -2.1048 H       1  UNL1        0.2922
     43 H           0.9954   -1.4949   -2.2458 H       1  UNL1        0.0662
     44 H           0.4958   -5.0870   -2.1757 H       1  UNL1        0.2923
     45 H           1.3367   -5.7702    1.1425 H       1  UNL1        0.2923
     46 H           1.9441   -3.6070    2.1413 H       1  UNL1        0.0655
     47 H           2.1986   -1.1763    1.8850 H       1  UNL1        0.0626
     48 H          -2.3417   -1.1938   -2.1207 H       1  UNL1        0.0683
     49 H          -2.3477    0.6330   -3.3201 H       1  UNL1        0.2102
     50 H          -4.3649    0.3774   -0.3927 H       1  UNL1        0.0648
     51 H          -5.3492   -0.5533   -2.1139 H       1  UNL1        0.2100
     52 H          -3.2435   -2.4637    0.0189 H       1  UNL1        0.0647
     53 H          -4.9052   -0.7700    1.6304 H       1  UNL1        0.2100
@<TRIPOS>BOND
     1     1     2    1
     2     2     3    1
     3     3     4    1
     4     4     5    1
     5     5     6    1
     6     6     7    1
     7     7     8   ar
     8     8     9   ar
     9     9    10   ar
    10    10    11   ar
    11    11    12   ar
    12    12    13    1
    13    12    14   ar
    14    14    15   ar
    15    15    16    1
    16    15    17   ar
    17    17    18   ar
    18    18    19    2
    19     8    20    1
    20    20    21   ar
    21    21    22   ar
    22    22    23    1
    23    22    24   ar
    24    24    25    1
    25    24    26   ar
    26    26    27   ar
    27     5    28    1
    28    28    29    1
    29    28    30    1
    30    30    31    1
    31    30    32    1
    32    32    33    1
    33    32     3    1
    34    18     7   ar
    35    27    20   ar
    36    17    10   ar
    37     1    34    1
    38     2    35    1
    39     2    36    1
    40     3    37    1
    41     5    38    1
    42    11    39    1
    43    13    40    1
    44    14    41    1
    45    16    42    1
    46    21    43    1
    47    23    44    1
    48    25    45    1
    49    26    46    1
    50    27    47    1
    51    28    48    1
    52    29    49    1
    53    30    50    1
    54    31    51    1
    55    32    52    1
    56    33    53    1
