@<TRIPOS>MOLECULE
Pelargonidin 3-O-glucosyl-rutinoside
 93 98 0 0 0
SMALL
GASTEIGER

@<TRIPOS>ATOM
      1 C           6.4836    0.3705   -0.8692 C.3     1  UNL1        0.0873
      2 C           6.5326   -0.1533   -2.3037 C.3     1  UNL1       -0.0361
      3 O           5.6045    1.4778   -0.8132 O.3     1  UNL1       -0.3431
      4 C           5.2661    1.8038    0.5333 C.3     1  UNL1        0.1879
      5 O           4.2458    0.9399    1.0014 O.3     1  UNL1       -0.3461
      6 C           3.0019    1.2865    0.4257 C.3     1  UNL1        0.0796
      7 C           1.9777    0.1743    0.6860 C.3     1  UNL1        0.1144
      8 O           0.7028    0.6593    0.3055 O.3     1  UNL1       -0.3313
      9 C          -0.3118   -0.2570    0.6760 C.3     1  UNL1        0.2316
     10 O          -1.5807    0.3261    0.3851 O.3     1  UNL1       -0.4514
     11 C          -2.0866    1.4933    0.9821 C.ar    1  UNL1        0.2288
     12 C          -1.4719    2.0849    2.0985 C.ar    1  UNL1        0.0093
     13 C          -2.0493    3.2085    2.7002 C.ar    1  UNL1        0.1241
     14 C          -3.2463    3.7153    2.1535 C.ar    1  UNL1        0.3708
     15 C          -3.8631    4.8287    2.7324 C.ar    1  UNL1        0.0847
     16 C          -3.2966    5.4457    3.8516 C.ar    1  UNL1        0.1293
     17 O          -3.9242    6.5545    4.4150 O.3     1  UNL1       -0.5063
     18 C          -2.1054    4.9468    4.3963 C.ar    1  UNL1        0.0225
     19 C          -1.4767    3.8295    3.8271 C.ar    1  UNL1        0.1366
     20 O          -0.2918    3.3411    4.3789 O.3     1  UNL1       -0.5057
     21 O          -3.7908    3.1442    1.0852 O.2     1  UNL1       -0.1997
     22 C          -3.2631    2.0846    0.4751 C.ar    1  UNL1        0.4045
     23 C          -3.9450    1.5666   -0.7329 C.ar    1  UNL1        0.0830
     24 C          -5.3488    1.5295   -0.7739 C.ar    1  UNL1       -0.0420
     25 C          -6.0125    1.0860   -1.9219 C.ar    1  UNL1       -0.0193
     26 C          -5.2836    0.6876   -3.0462 C.ar    1  UNL1        0.1169
     27 O          -5.9572    0.2366   -4.1789 O.3     1  UNL1       -0.5068
     28 C          -3.8844    0.7455   -3.0229 C.ar    1  UNL1       -0.0193
     29 C          -3.2179    1.1853   -1.8758 C.ar    1  UNL1       -0.0420
     30 C          -0.1743   -1.5601   -0.1274 C.3     1  UNL1        0.1519
     31 O          -1.1570   -2.4769    0.3293 O.3     1  UNL1       -0.3366
     32 C          -1.8428   -3.0934   -0.7440 C.3     1  UNL1        0.1886
     33 O          -2.7903   -2.1687   -1.2639 O.3     1  UNL1       -0.3405
     34 C          -3.8360   -2.7347   -2.0534 C.3     1  UNL1        0.1130
     35 C          -5.1723   -2.5625   -1.3093 C.3     1  UNL1        0.0730
     36 O          -6.2551   -2.7472   -2.1828 O.3     1  UNL1       -0.3924
     37 C          -3.6004   -4.1951   -2.5271 C.3     1  UNL1        0.1119
     38 O          -2.5673   -4.1953   -3.4815 O.3     1  UNL1       -0.3865
     39 C          -3.2351   -5.1293   -1.3494 C.3     1  UNL1        0.1141
     40 O          -4.4017   -5.7372   -0.8555 O.3     1  UNL1       -0.3864
     41 C          -2.5143   -4.3732   -0.2107 C.3     1  UNL1        0.1341
     42 O          -1.5507   -5.2201    0.3644 O.3     1  UNL1       -0.3841
     43 C           1.2216   -2.1637    0.1076 C.3     1  UNL1        0.1155
     44 O           1.4127   -3.2435   -0.7700 O.3     1  UNL1       -0.3863
     45 C           2.3170   -1.1041   -0.1176 C.3     1  UNL1        0.1120
     46 O           3.5563   -1.6165    0.3019 O.3     1  UNL1       -0.3865
     47 C           6.4807    1.7338    1.5064 C.3     1  UNL1        0.1341
     48 O           6.3896    2.7355    2.4865 O.3     1  UNL1       -0.3841
     49 C           7.8037    1.8767    0.7315 C.3     1  UNL1        0.1140
     50 O           7.8779    3.1521    0.1424 O.3     1  UNL1       -0.3864
     51 C           7.8939    0.7956   -0.3777 C.3     1  UNL1        0.1095
     52 O           8.6188   -0.3253    0.0666 O.3     1  UNL1       -0.3866
     53 H           6.0933   -0.4630   -0.2385 H       1  UNL1        0.0621
     54 H           5.5193   -0.4863   -2.6145 H       1  UNL1        0.0255
     55 H           7.2256   -1.0186   -2.3733 H       1  UNL1        0.0255
     56 H           6.8728    0.6442   -2.9985 H       1  UNL1        0.0255
     57 H           4.9161    2.8638    0.5342 H       1  UNL1        0.0937
     58 H           3.0788    1.4517   -0.6745 H       1  UNL1        0.0587
     59 H           2.6303    2.2238    0.8981 H       1  UNL1        0.0587
     60 H           1.9976   -0.0476    1.7797 H       1  UNL1        0.0647
     61 H          -0.2693   -0.4927    1.7655 H       1  UNL1        0.1084
     62 H          -0.5622    1.6679    2.5076 H       1  UNL1        0.0667
     63 H          -4.7825    5.2166    2.3114 H       1  UNL1        0.0749
     64 H          -3.5403    7.0253    5.2260 H       1  UNL1        0.2921
     65 H          -1.6685    5.4271    5.2628 H       1  UNL1        0.0691
     66 H           0.1353    3.7745    5.1892 H       1  UNL1        0.2922
     67 H          -5.9311    1.8347    0.0869 H       1  UNL1        0.0628
     68 H          -7.0943    1.0487   -1.9364 H       1  UNL1        0.0654
     69 H          -5.4569   -0.0651   -5.0069 H       1  UNL1        0.2921
     70 H          -3.3122    0.4510   -3.8935 H       1  UNL1        0.0654
     71 H          -2.1378    1.2528   -1.8948 H       1  UNL1        0.0628
     72 H          -0.2771   -1.2921   -1.2089 H       1  UNL1        0.0687
     73 H          -1.1262   -3.3920   -1.5456 H       1  UNL1        0.0938
     74 H          -3.9100   -2.1139   -2.9725 H       1  UNL1        0.0647
     75 H          -5.2275   -1.5287   -0.9098 H       1  UNL1        0.0584
     76 H          -5.2402   -3.2441   -0.4326 H       1  UNL1        0.0584
     77 H          -6.5565   -3.6870   -2.0772 H       1  UNL1        0.2095
     78 H          -4.5290   -4.5671   -3.0206 H       1  UNL1        0.0647
     79 H          -2.6432   -5.0434   -3.9927 H       1  UNL1        0.2100
     80 H          -2.5618   -5.9266   -1.7459 H       1  UNL1        0.0648
     81 H          -4.1106   -6.4960   -0.2849 H       1  UNL1        0.2100
     82 H          -3.2618   -4.0760    0.5629 H       1  UNL1        0.0671
     83 H          -1.3914   -4.8967    1.2895 H       1  UNL1        0.2101
     84 H           1.2732   -2.5185    1.1660 H       1  UNL1        0.0648
     85 H           2.0809   -3.8451   -0.3491 H       1  UNL1        0.2100
     86 H           2.3518   -0.8417   -1.2029 H       1  UNL1        0.0647
     87 H           3.9379   -2.1175   -0.4656 H       1  UNL1        0.2100
     88 H           6.4956    0.7379    2.0096 H       1  UNL1        0.0671
     89 H           5.6434    2.4768    3.0884 H       1  UNL1        0.2101
     90 H           8.6589    1.7437    1.4365 H       1  UNL1        0.0648
     91 H           8.1784    3.7821    0.8486 H       1  UNL1        0.2100
     92 H           8.4620    1.2336   -1.2288 H       1  UNL1        0.0646
     93 H           8.1571   -0.6858    0.8682 H       1  UNL1        0.2100
@<TRIPOS>UNITY_ATOM_ATTR
21 1
charge 1
@<TRIPOS>BOND
     1     1     2    1
     2     1     3    1
     3     3     4    1
     4     4     5    1
     5     5     6    1
     6     6     7    1
     7     7     8    1
     8     8     9    1
     9     9    10    1
    10    10    11    1
    11    11    12   ar
    12    12    13   ar
    13    13    14   ar
    14    14    15   ar
    15    15    16   ar
    16    16    17    1
    17    16    18   ar
    18    18    19   ar
    19    19    20    1
    20    14    21   ar
    21    21    22   ar
    22    22    23    1
    23    23    24   ar
    24    24    25   ar
    25    25    26   ar
    26    26    27    1
    27    26    28   ar
    28    28    29   ar
    29     9    30    1
    30    30    31    1
    31    31    32    1
    32    32    33    1
    33    33    34    1
    34    34    35    1
    35    35    36    1
    36    34    37    1
    37    37    38    1
    38    37    39    1
    39    39    40    1
    40    39    41    1
    41    41    42    1
    42    30    43    1
    43    43    44    1
    44    43    45    1
    45    45    46    1
    46     4    47    1
    47    47    48    1
    48    47    49    1
    49    49    50    1
    50    49    51    1
    51    51    52    1
    52    51     1    1
    53    45     7    1
    54    22    11   ar
    55    29    23   ar
    56    41    32    1
    57    19    13   ar
    58     1    53    1
    59     2    54    1
    60     2    55    1
    61     2    56    1
    62     4    57    1
    63     6    58    1
    64     6    59    1
    65     7    60    1
    66     9    61    1
    67    12    62    1
    68    15    63    1
    69    17    64    1
    70    18    65    1
    71    20    66    1
    72    24    67    1
    73    25    68    1
    74    27    69    1
    75    28    70    1
    76    29    71    1
    77    30    72    1
    78    32    73    1
    79    34    74    1
    80    35    75    1
    81    35    76    1
    82    36    77    1
    83    37    78    1
    84    38    79    1
    85    39    80    1
    86    40    81    1
    87    41    82    1
    88    42    83    1
    89    43    84    1
    90    44    85    1
    91    45    86    1
    92    46    87    1
    93    47    88    1
    94    48    89    1
    95    49    90    1
    96    50    91    1
    97    51    92    1
    98    52    93    1
