@<TRIPOS>MOLECULE
Quercetin 3-O-xyloside
 49 52 0 0 0
SMALL
GASTEIGER

@<TRIPOS>ATOM
      1 O           5.1632   -0.3908   -1.8623 O.3     1  UNL1       -0.3869
      2 C           4.4686   -0.2788   -0.6449 C.3     1  UNL1        0.1070
      3 C           3.2325   -1.2056   -0.6227 C.3     1  UNL1        0.0802
      4 O           2.0838   -0.5128   -1.0689 O.3     1  UNL1       -0.3369
      5 C           1.6606    0.4532   -0.1117 C.3     1  UNL1        0.2308
      6 O           0.8937   -0.1809    0.9133 O.3     1  UNL1       -0.4532
      7 C          -0.3485   -0.7721    0.6579 C.ar    1  UNL1        0.2138
      8 C          -1.4909    0.0001    0.3592 C.ar    1  UNL1        0.1810
      9 O          -2.6319   -0.6067    0.0451 O.2     1  UNL1       -0.4507
     10 C          -2.7760   -1.9271    0.0310 C.ar    1  UNL1        0.1465
     11 C          -4.0166   -2.4731   -0.3110 C.ar    1  UNL1        0.0231
     12 C          -4.2004   -3.8568   -0.3231 C.ar    1  UNL1        0.1239
     13 O          -5.4448   -4.3809   -0.6660 O.3     1  UNL1       -0.5065
     14 C          -3.1369   -4.7040    0.0092 C.ar    1  UNL1        0.0223
     15 C          -1.8836   -4.1760    0.3530 C.ar    1  UNL1        0.1348
     16 O          -0.8414   -5.0454    0.6776 O.3     1  UNL1       -0.5058
     17 C          -1.6926   -2.7735    0.3652 C.ar    1  UNL1        0.1092
     18 C          -0.4619   -2.1662    0.6862 C.ar    1  UNL1        0.2382
     19 O           0.5486   -2.8588    0.9853 O.2     1  UNL1       -0.2830
     20 C          -1.4746    1.4797    0.3892 C.ar    1  UNL1        0.0247
     21 C          -2.1416    2.2009   -0.6121 C.ar    1  UNL1       -0.0057
     22 C          -2.1478    3.6015   -0.6081 C.ar    1  UNL1        0.1589
     23 O          -2.8206    4.2535   -1.6436 O.3     1  UNL1       -0.5033
     24 C          -1.4831    4.2981    0.4290 C.ar    1  UNL1        0.1583
     25 O          -1.4408    5.6921    0.4961 O.3     1  UNL1       -0.5033
     26 C          -0.8390    3.5749    1.4388 C.ar    1  UNL1       -0.0159
     27 C          -0.8393    2.1793    1.4268 C.ar    1  UNL1       -0.0473
     28 C           2.8260    1.2589    0.5270 C.3     1  UNL1        0.1454
     29 O           2.4276    2.5931    0.7156 O.3     1  UNL1       -0.3829
     30 C           4.0681    1.1951   -0.3829 C.3     1  UNL1        0.1148
     31 O           5.1444    1.9164    0.1639 O.3     1  UNL1       -0.3864
     32 H           4.5240   -0.1803   -2.5929 H       1  UNL1        0.2100
     33 H           5.1512   -0.6234    0.1625 H       1  UNL1        0.0643
     34 H           3.4042   -2.0799   -1.2860 H       1  UNL1        0.0588
     35 H           3.0743   -1.6161    0.4014 H       1  UNL1        0.0588
     36 H           1.0129    1.1724   -0.6575 H       1  UNL1        0.1084
     37 H          -4.8418   -1.8194   -0.5660 H       1  UNL1        0.0691
     38 H          -5.6121   -5.3802   -0.6844 H       1  UNL1        0.2921
     39 H          -3.2842   -5.7767   -0.0009 H       1  UNL1        0.0691
     40 H          -0.9650   -6.0512    0.6723 H       1  UNL1        0.2922
     41 H          -2.6486    1.6739   -1.4118 H       1  UNL1        0.0662
     42 H          -2.8884    5.2573   -1.7288 H       1  UNL1        0.2923
     43 H          -1.8685    6.3033   -0.1844 H       1  UNL1        0.2923
     44 H          -0.3370    4.0998    2.2418 H       1  UNL1        0.0655
     45 H          -0.3524    1.6486    2.2350 H       1  UNL1        0.0626
     46 H           3.0793    0.7972    1.5120 H       1  UNL1        0.0683
     47 H           3.0128    2.9733    1.4216 H       1  UNL1        0.2102
     48 H           3.7974    1.6763   -1.3493 H       1  UNL1        0.0648
     49 H           5.3371    1.5376    1.0614 H       1  UNL1        0.2100
@<TRIPOS>BOND
     1     1     2    1
     2     2     3    1
     3     3     4    1
     4     4     5    1
     5     5     6    1
     6     6     7    1
     7     7     8   ar
     8     8     9   ar
     9     9    10   ar
    10    10    11   ar
    11    11    12   ar
    12    12    13    1
    13    12    14   ar
    14    14    15   ar
    15    15    16    1
    16    15    17   ar
    17    17    18   ar
    18    18    19    2
    19     8    20    1
    20    20    21   ar
    21    21    22   ar
    22    22    23    1
    23    22    24   ar
    24    24    25    1
    25    24    26   ar
    26    26    27   ar
    27     5    28    1
    28    28    29    1
    29    28    30    1
    30    30    31    1
    31    30     2    1
    32    18     7   ar
    33    27    20   ar
    34    17    10   ar
    35     1    32    1
    36     2    33    1
    37     3    34    1
    38     3    35    1
    39     5    36    1
    40    11    37    1
    41    13    38    1
    42    14    39    1
    43    16    40    1
    44    21    41    1
    45    23    42    1
    46    25    43    1
    47    26    44    1
    48    27    45    1
    49    28    46    1
    50    29    47    1
    51    30    48    1
    52    31    49    1
