@<TRIPOS>MOLECULE
Quercetin 3-O-rhamnoside
 52 55 0 0 0
SMALL
GASTEIGER

@<TRIPOS>ATOM
      1 C           2.9367    3.2899   -1.0957 C.3     1  UNL1       -0.0360
      2 C           3.0396    1.7659   -1.0124 C.3     1  UNL1        0.0883
      3 O           1.7740    1.2076   -1.3590 O.3     1  UNL1       -0.3339
      4 C           1.4076    0.0485   -0.6243 C.3     1  UNL1        0.2311
      5 O           0.3794   -0.6331   -1.3449 O.3     1  UNL1       -0.4532
      6 C          -0.7747   -1.1463   -0.7358 C.ar    1  UNL1        0.2138
      7 C          -1.6760   -0.3255   -0.0275 C.ar    1  UNL1        0.1810
      8 O          -2.7236   -0.8703    0.5785 O.2     1  UNL1       -0.4507
      9 C          -2.9960   -2.1693    0.5416 C.ar    1  UNL1        0.1465
     10 C          -4.1438   -2.6277    1.1924 C.ar    1  UNL1        0.0231
     11 C          -4.4861   -3.9768    1.1555 C.ar    1  UNL1        0.1239
     12 O          -5.6465   -4.4090    1.7940 O.3     1  UNL1       -0.5065
     13 C          -3.6612   -4.8838    0.4860 C.ar    1  UNL1        0.0223
     14 C          -2.4838   -4.4615   -0.1438 C.ar    1  UNL1        0.1348
     15 O          -1.6876   -5.4633   -0.7073 O.3     1  UNL1       -0.5058
     16 C          -2.1517   -3.0727   -0.1568 C.ar    1  UNL1        0.1092
     17 C          -1.0418   -2.5157   -0.8369 C.ar    1  UNL1        0.2382
     18 O          -0.2802   -3.2197   -1.5498 O.2     1  UNL1       -0.2830
     19 C          -1.5129    1.1418    0.0535 C.ar    1  UNL1        0.0247
     20 C          -1.2287    1.9042   -1.0922 C.ar    1  UNL1       -0.0057
     21 C          -1.0357    3.2867   -0.9969 C.ar    1  UNL1        0.1589
     22 O          -0.7254    4.0082   -2.1490 O.3     1  UNL1       -0.5033
     23 C          -1.1531    3.9241    0.2497 C.ar    1  UNL1        0.1583
     24 O          -0.9562    5.3001    0.3528 O.3     1  UNL1       -0.5033
     25 C          -1.4708    3.1703    1.3878 C.ar    1  UNL1       -0.0159
     26 C          -1.6561    1.7890    1.2894 C.ar    1  UNL1       -0.0473
     27 C           2.5879   -0.9130   -0.4004 C.3     1  UNL1        0.1454
     28 O           3.0743   -1.3373   -1.6486 O.3     1  UNL1       -0.3829
     29 C           3.7171   -0.2187    0.4088 C.3     1  UNL1        0.1151
     30 O           3.7017   -0.6578    1.7439 O.3     1  UNL1       -0.3864
     31 C           3.6013    1.3236    0.3633 C.3     1  UNL1        0.1096
     32 O           2.7670    1.7981    1.3936 O.3     1  UNL1       -0.3866
     33 H           2.1825    3.6693   -0.3735 H       1  UNL1        0.0255
     34 H           2.6234    3.5894   -2.1185 H       1  UNL1        0.0255
     35 H           3.9200    3.7588   -0.8783 H       1  UNL1        0.0255
     36 H           3.7700    1.4499   -1.7904 H       1  UNL1        0.0621
     37 H           1.0155    0.3608    0.3680 H       1  UNL1        0.1084
     38 H          -4.7821   -1.9272    1.7171 H       1  UNL1        0.0691
     39 H          -5.9232   -5.3838    1.7879 H       1  UNL1        0.2921
     40 H          -3.9205   -5.9354    0.4787 H       1  UNL1        0.0691
     41 H          -0.7147   -5.3614   -0.9515 H       1  UNL1        0.2922
     42 H          -1.1475    1.4255   -2.0604 H       1  UNL1        0.0662
     43 H          -0.5694    5.0089   -2.1315 H       1  UNL1        0.2923
     44 H          -1.0346    5.7823    1.2407 H       1  UNL1        0.2923
     45 H          -1.5685    3.6539    2.3514 H       1  UNL1        0.0655
     46 H          -1.8875    1.2208    2.1822 H       1  UNL1        0.0626
     47 H           2.2042   -1.7968    0.1630 H       1  UNL1        0.0683
     48 H           3.6044   -2.1606   -1.4842 H       1  UNL1        0.2102
     49 H           4.7019   -0.4876   -0.0433 H       1  UNL1        0.0648
     50 H           4.0768   -1.5774    1.7489 H       1  UNL1        0.2100
     51 H           4.6234    1.7583    0.4798 H       1  UNL1        0.0646
     52 H           3.3313    1.8956    2.2046 H       1  UNL1        0.2100
@<TRIPOS>BOND
     1     1     2    1
     2     2     3    1
     3     3     4    1
     4     4     5    1
     5     5     6    1
     6     6     7   ar
     7     7     8   ar
     8     8     9   ar
     9     9    10   ar
    10    10    11   ar
    11    11    12    1
    12    11    13   ar
    13    13    14   ar
    14    14    15    1
    15    14    16   ar
    16    16    17   ar
    17    17    18    2
    18     7    19    1
    19    19    20   ar
    20    20    21   ar
    21    21    22    1
    22    21    23   ar
    23    23    24    1
    24    23    25   ar
    25    25    26   ar
    26     4    27    1
    27    27    28    1
    28    27    29    1
    29    29    30    1
    30    29    31    1
    31    31    32    1
    32    31     2    1
    33    17     6   ar
    34    26    19   ar
    35    16     9   ar
    36     1    33    1
    37     1    34    1
    38     1    35    1
    39     2    36    1
    40     4    37    1
    41    10    38    1
    42    12    39    1
    43    13    40    1
    44    15    41    1
    45    20    42    1
    46    22    43    1
    47    24    44    1
    48    25    45    1
    49    26    46    1
    50    27    47    1
    51    28    48    1
    52    29    49    1
    53    30    50    1
    54    31    51    1
    55    32    52    1
