@<TRIPOS>MOLECULE
Quercetin 3-O-rutinoside
 73 77 0 0 0
SMALL
GASTEIGER

@<TRIPOS>ATOM
      1 C           6.3184    0.1187   -0.0503 C.3     1  UNL1       -0.0361
      2 C           4.9235    0.4306   -0.5927 C.3     1  UNL1        0.0873
      3 O           4.0590   -0.6389   -0.2582 O.3     1  UNL1       -0.3431
      4 C           2.6913   -0.2833   -0.4400 C.3     1  UNL1        0.1879
      5 O           2.2262    0.4637    0.6706 O.3     1  UNL1       -0.3461
      6 C           2.0842   -0.3650    1.8078 C.3     1  UNL1        0.0796
      7 C           1.3578    0.4184    2.9201 C.3     1  UNL1        0.1144
      8 O           0.2411    1.1515    2.4295 O.3     1  UNL1       -0.3313
      9 C          -0.8263    0.3338    1.9626 C.3     1  UNL1        0.2311
     10 O          -0.5528   -0.0918    0.6252 O.3     1  UNL1       -0.4532
     11 C          -1.5442   -0.5116   -0.2677 C.ar    1  UNL1        0.2138
     12 C          -2.5167    0.3764   -0.7730 C.ar    1  UNL1        0.1810
     13 O          -3.4859   -0.0869   -1.5570 O.2     1  UNL1       -0.4507
     14 C          -3.5717   -1.3567   -1.9376 C.ar    1  UNL1        0.1465
     15 C          -4.6278   -1.7501   -2.7646 C.ar    1  UNL1        0.0231
     16 C          -4.7343   -3.0743   -3.1928 C.ar    1  UNL1        0.1239
     17 O          -5.7939   -3.4459   -4.0175 O.3     1  UNL1       -0.5065
     18 C          -3.7784   -4.0152   -2.7927 C.ar    1  UNL1        0.0223
     19 C          -2.7126   -3.6412   -1.9609 C.ar    1  UNL1        0.1348
     20 O          -1.7758   -4.6015   -1.5765 O.3     1  UNL1       -0.5058
     21 C          -2.6022   -2.3000   -1.5226 C.ar    1  UNL1        0.1092
     22 C          -1.5708   -1.8490   -0.6752 C.ar    1  UNL1        0.2382
     23 O          -0.6746   -2.6347   -0.2628 O.2     1  UNL1       -0.2830
     24 C          -2.4929    1.8265   -0.4786 C.ar    1  UNL1        0.0247
     25 C          -3.6952    2.4999   -0.2111 C.ar    1  UNL1       -0.0057
     26 C          -3.6964    3.8756    0.0622 C.ar    1  UNL1        0.1589
     27 O          -4.8935    4.5331    0.3410 O.3     1  UNL1       -0.5033
     28 C          -2.4864    4.5899    0.0542 C.ar    1  UNL1        0.1583
     29 O          -2.4541    5.9575    0.3246 O.3     1  UNL1       -0.5033
     30 C          -1.2902    3.9253   -0.2327 C.ar    1  UNL1       -0.0159
     31 C          -1.2911    2.5555   -0.5054 C.ar    1  UNL1       -0.0473
     32 C          -1.1378   -0.8815    2.8784 C.3     1  UNL1        0.1454
     33 O          -2.5269   -1.0567    2.9952 O.3     1  UNL1       -0.3829
     34 C          -0.5322   -0.6573    4.2678 C.3     1  UNL1        0.1152
     35 O          -0.7997   -1.7577    5.0996 O.3     1  UNL1       -0.3864
     36 C           0.9886   -0.4763    4.1421 C.3     1  UNL1        0.1120
     37 O           1.4725    0.0970    5.3300 O.3     1  UNL1       -0.3865
     38 C           2.4376    0.5317   -1.7433 C.3     1  UNL1        0.1341
     39 O           1.1772    0.2462   -2.3002 O.3     1  UNL1       -0.3841
     40 C           3.5727    0.3283   -2.7700 C.3     1  UNL1        0.1140
     41 O           3.5452   -0.9695   -3.3174 O.3     1  UNL1       -0.3864
     42 C           4.9534    0.6392   -2.1327 C.3     1  UNL1        0.1095
     43 O           5.3014    1.9708   -2.4182 O.3     1  UNL1       -0.3866
     44 H           7.0182    0.9516   -0.2731 H       1  UNL1        0.0255
     45 H           6.7105   -0.8184   -0.5003 H       1  UNL1        0.0255
     46 H           6.2700   -0.0116    1.0517 H       1  UNL1        0.0255
     47 H           4.5859    1.3694   -0.0918 H       1  UNL1        0.0621
     48 H           2.1217   -1.2358   -0.5422 H       1  UNL1        0.0937
     49 H           1.5059   -1.2877    1.5772 H       1  UNL1        0.0587
     50 H           3.0874   -0.6691    2.1826 H       1  UNL1        0.0587
     51 H           2.0921    1.1793    3.2660 H       1  UNL1        0.0647
     52 H          -1.7235    0.9886    1.9562 H       1  UNL1        0.1084
     53 H          -5.3667   -1.0229   -3.0785 H       1  UNL1        0.0691
     54 H          -5.9005   -4.3984   -4.3466 H       1  UNL1        0.2921
     55 H          -3.8644   -5.0412   -3.1281 H       1  UNL1        0.0691
     56 H          -1.8437   -5.5650   -1.8830 H       1  UNL1        0.2922
     57 H          -4.6309    1.9537   -0.2000 H       1  UNL1        0.0662
     58 H          -5.7793    4.0409    0.3530 H       1  UNL1        0.2923
     59 H          -3.2930    6.4838    0.5371 H       1  UNL1        0.2923
     60 H          -0.3570    4.4739   -0.2504 H       1  UNL1        0.0655
     61 H          -0.3546    2.0708   -0.7488 H       1  UNL1        0.0626
     62 H          -0.6838   -1.8068    2.4514 H       1  UNL1        0.0683
     63 H          -2.8373   -1.4635    2.1447 H       1  UNL1        0.2102
     64 H          -0.9704    0.2707    4.7097 H       1  UNL1        0.0648
     65 H          -1.7191   -1.6362    5.4540 H       1  UNL1        0.2100
     66 H           1.4441   -1.4888    4.0194 H       1  UNL1        0.0647
     67 H           2.4512   -0.0702    5.3508 H       1  UNL1        0.2100
     68 H           2.4369    1.6136   -1.4806 H       1  UNL1        0.0671
     69 H           1.1587   -0.7157   -2.5429 H       1  UNL1        0.2101
     70 H           3.3992    1.0343   -3.6121 H       1  UNL1        0.0648
     71 H           3.7643   -1.6152   -2.5972 H       1  UNL1        0.2100
     72 H           5.7036   -0.0450   -2.5979 H       1  UNL1        0.0646
     73 H           6.2887    2.0367   -2.3399 H       1  UNL1        0.2100
@<TRIPOS>BOND
     1     1     2    1
     2     2     3    1
     3     3     4    1
     4     4     5    1
     5     5     6    1
     6     6     7    1
     7     7     8    1
     8     8     9    1
     9     9    10    1
    10    10    11    1
    11    11    12   ar
    12    12    13   ar
    13    13    14   ar
    14    14    15   ar
    15    15    16   ar
    16    16    17    1
    17    16    18   ar
    18    18    19   ar
    19    19    20    1
    20    19    21   ar
    21    21    22   ar
    22    22    23    2
    23    12    24    1
    24    24    25   ar
    25    25    26   ar
    26    26    27    1
    27    26    28   ar
    28    28    29    1
    29    28    30   ar
    30    30    31   ar
    31     9    32    1
    32    32    33    1
    33    32    34    1
    34    34    35    1
    35    34    36    1
    36    36    37    1
    37     4    38    1
    38    38    39    1
    39    38    40    1
    40    40    41    1
    41    40    42    1
    42    42    43    1
    43    42     2    1
    44    36     7    1
    45    22    11   ar
    46    31    24   ar
    47    21    14   ar
    48     1    44    1
    49     1    45    1
    50     1    46    1
    51     2    47    1
    52     4    48    1
    53     6    49    1
    54     6    50    1
    55     7    51    1
    56     9    52    1
    57    15    53    1
    58    17    54    1
    59    18    55    1
    60    20    56    1
    61    25    57    1
    62    27    58    1
    63    29    59    1
    64    30    60    1
    65    31    61    1
    66    32    62    1
    67    33    63    1
    68    34    64    1
    69    35    65    1
    70    36    66    1
    71    37    67    1
    72    38    68    1
    73    39    69    1
    74    40    70    1
    75    41    71    1
    76    42    72    1
    77    43    73    1
