@<TRIPOS>MOLECULE
Quercetin 3-O-sophoroside
 74 78 0 0 0
SMALL
GASTEIGER

@<TRIPOS>ATOM
      1 O           2.6149   -0.7406    4.5502 O.3     1  UNL1       -0.3924
      2 C           2.0793   -0.1012    3.4227 C.3     1  UNL1        0.0730
      3 C           3.1246    0.0195    2.3011 C.3     1  UNL1        0.1130
      4 O           2.4528    0.4360    1.1258 O.3     1  UNL1       -0.3405
      5 C           3.3230    0.3955    0.0063 C.3     1  UNL1        0.1886
      6 O           2.5924    0.6958   -1.1683 O.3     1  UNL1       -0.3366
      7 C           1.6328   -0.3104   -1.4640 C.3     1  UNL1        0.1519
      8 C           1.7080   -0.6376   -2.9750 C.3     1  UNL1        0.1155
      9 O           1.2210   -1.9353   -3.2142 O.3     1  UNL1       -0.3863
     10 C           0.8745    0.3660   -3.7963 C.3     1  UNL1        0.1120
     11 O           1.4669    1.6397   -3.7358 O.3     1  UNL1       -0.3865
     12 C          -0.5861    0.4544   -3.2473 C.3     1  UNL1        0.1140
     13 C          -1.5968   -0.1368   -4.2420 C.3     1  UNL1        0.0731
     14 O          -1.6067    0.5921   -5.4404 O.3     1  UNL1       -0.3924
     15 O          -0.7390   -0.2355   -2.0177 O.3     1  UNL1       -0.3313
     16 C           0.2228    0.2006   -1.0758 C.3     1  UNL1        0.2315
     17 O          -0.1158   -0.3126    0.2102 O.3     1  UNL1       -0.4532
     18 C          -1.3281   -0.0093    0.8350 C.ar    1  UNL1        0.2138
     19 C          -2.4859   -0.7715    0.5853 C.ar    1  UNL1        0.1810
     20 O          -3.6358   -0.4319    1.1601 O.2     1  UNL1       -0.4507
     21 C          -3.7562    0.5933    1.9970 C.ar    1  UNL1        0.1465
     22 C          -5.0057    0.8706    2.5592 C.ar    1  UNL1        0.0231
     23 C          -5.1606    1.9381    3.4451 C.ar    1  UNL1        0.1239
     24 O          -6.4142    2.1972    3.9949 O.3     1  UNL1       -0.5065
     25 C          -4.0592    2.7369    3.7736 C.ar    1  UNL1        0.0223
     26 C          -2.7972    2.4767    3.2192 C.ar    1  UNL1        0.1348
     27 O          -1.7174    3.2901    3.5652 O.3     1  UNL1       -0.5058
     28 C          -2.6357    1.3961    2.3196 C.ar    1  UNL1        0.1092
     29 C          -1.4042    1.0759    1.7137 C.ar    1  UNL1        0.2382
     30 O          -0.3678    1.7573    1.9410 O.2     1  UNL1       -0.2830
     31 C          -2.4723   -1.9329   -0.3309 C.ar    1  UNL1        0.0247
     32 C          -3.5032   -2.0828   -1.2715 C.ar    1  UNL1       -0.0057
     33 C          -3.4821   -3.1435   -2.1885 C.ar    1  UNL1        0.1589
     34 O          -4.4977   -3.2710   -3.1349 O.3     1  UNL1       -0.5033
     35 C          -2.4311   -4.0754   -2.1539 C.ar    1  UNL1        0.1583
     36 O          -2.3793   -5.1382   -3.0551 O.3     1  UNL1       -0.5033
     37 C          -1.4167   -3.9421   -1.2010 C.ar    1  UNL1       -0.0159
     38 C          -1.4373   -2.8830   -0.2906 C.ar    1  UNL1       -0.0473
     39 C           4.4318    1.4506    0.1750 C.3     1  UNL1        0.1341
     40 O           5.3200    1.3924   -0.9118 O.3     1  UNL1       -0.3841
     41 C           5.2056    1.1843    1.4783 C.3     1  UNL1        0.1141
     42 O           6.0909    2.2435    1.7371 O.3     1  UNL1       -0.3864
     43 C           4.2334    1.0395    2.6598 C.3     1  UNL1        0.1119
     44 O           4.9534    0.6055    3.7864 O.3     1  UNL1       -0.3865
     45 H           2.6676   -1.7076    4.3312 H       1  UNL1        0.2095
     46 H           1.1955   -0.6704    3.0524 H       1  UNL1        0.0584
     47 H           1.7206    0.9080    3.7175 H       1  UNL1        0.0584
     48 H           3.5731   -0.9913    2.1518 H       1  UNL1        0.0647
     49 H           3.8071   -0.6071   -0.1003 H       1  UNL1        0.0938
     50 H           1.8271   -1.2683   -0.9203 H       1  UNL1        0.0687
     51 H           2.7696   -0.5814   -3.3148 H       1  UNL1        0.0648
     52 H           1.9371   -2.5677   -2.9436 H       1  UNL1        0.2100
     53 H           0.8711    0.0250   -4.8591 H       1  UNL1        0.0647
     54 H           2.2732    1.6130   -4.3148 H       1  UNL1        0.2100
     55 H          -0.8717    1.5219   -3.0973 H       1  UNL1        0.0647
     56 H          -2.6153   -0.1396   -3.7896 H       1  UNL1        0.0584
     57 H          -1.3303   -1.1926   -4.4637 H       1  UNL1        0.0584
     58 H          -2.0982    1.4349   -5.2565 H       1  UNL1        0.2095
     59 H           0.2240    1.3152   -1.0091 H       1  UNL1        0.1084
     60 H          -5.8593    0.2531    2.3075 H       1  UNL1        0.0691
     61 H          -6.5613    2.9637    4.6412 H       1  UNL1        0.2921
     62 H          -4.1841    3.5635    4.4619 H       1  UNL1        0.0691
     63 H          -1.8194    4.0665    4.2084 H       1  UNL1        0.2922
     64 H          -4.3082   -1.3588   -1.3125 H       1  UNL1        0.0662
     65 H          -5.2641   -2.6099   -3.1833 H       1  UNL1        0.2923
     66 H          -3.0892   -5.2774   -3.7641 H       1  UNL1        0.2923
     67 H          -0.6091   -4.6623   -1.1662 H       1  UNL1        0.0655
     68 H          -0.6474   -2.8094    0.4459 H       1  UNL1        0.0626
     69 H           3.9665    2.4637    0.2377 H       1  UNL1        0.0671
     70 H           4.8993    1.8969   -1.6561 H       1  UNL1        0.2101
     71 H           5.7768    0.2298    1.3752 H       1  UNL1        0.0648
     72 H           6.8818    2.1079    1.1524 H       1  UNL1        0.2100
     73 H           3.7635    2.0363    2.8481 H       1  UNL1        0.0647
     74 H           4.5877    1.0883    4.5730 H       1  UNL1        0.2100
@<TRIPOS>BOND
     1     1     2    1
     2     2     3    1
     3     3     4    1
     4     4     5    1
     5     5     6    1
     6     6     7    1
     7     7     8    1
     8     8     9    1
     9     8    10    1
    10    10    11    1
    11    10    12    1
    12    12    13    1
    13    13    14    1
    14    12    15    1
    15    15    16    1
    16    16    17    1
    17    17    18    1
    18    18    19   ar
    19    19    20   ar
    20    20    21   ar
    21    21    22   ar
    22    22    23   ar
    23    23    24    1
    24    23    25   ar
    25    25    26   ar
    26    26    27    1
    27    26    28   ar
    28    28    29   ar
    29    29    30    2
    30    19    31    1
    31    31    32   ar
    32    32    33   ar
    33    33    34    1
    34    33    35   ar
    35    35    36    1
    36    35    37   ar
    37    37    38   ar
    38     5    39    1
    39    39    40    1
    40    39    41    1
    41    41    42    1
    42    41    43    1
    43    43    44    1
    44    43     3    1
    45    16     7    1
    46    29    18   ar
    47    38    31   ar
    48    28    21   ar
    49     1    45    1
    50     2    46    1
    51     2    47    1
    52     3    48    1
    53     5    49    1
    54     7    50    1
    55     8    51    1
    56     9    52    1
    57    10    53    1
    58    11    54    1
    59    12    55    1
    60    13    56    1
    61    13    57    1
    62    14    58    1
    63    16    59    1
    64    22    60    1
    65    24    61    1
    66    25    62    1
    67    27    63    1
    68    32    64    1
    69    34    65    1
    70    36    66    1
    71    37    67    1
    72    38    68    1
    73    39    69    1
    74    40    70    1
    75    41    71    1
    76    42    72    1
    77    43    73    1
    78    44    74    1
