@<TRIPOS>MOLECULE
Quercetin 3-O-arabinoside
 49 52 0 0 0
SMALL
GASTEIGER

@<TRIPOS>ATOM
      1 O           5.3794    0.3267   -1.0651 O.3     1  UNL1       -0.3869
      2 C           4.0327    0.3773   -0.6681 C.3     1  UNL1        0.1070
      3 C           3.5222   -1.0363   -0.3275 C.3     1  UNL1        0.0802
      4 O           2.1427   -1.0895    0.0201 O.3     1  UNL1       -0.3369
      5 C           1.6271    0.1114    0.5884 C.3     1  UNL1        0.2308
      6 O           0.5134   -0.2166    1.4181 O.3     1  UNL1       -0.4532
      7 C          -0.6567   -0.7904    0.9067 C.ar    1  UNL1        0.2138
      8 C          -1.5391   -0.0688    0.0751 C.ar    1  UNL1        0.1810
      9 O          -2.5952   -0.6807   -0.4529 O.2     1  UNL1       -0.4507
     10 C          -2.8993   -1.9507   -0.2097 C.ar    1  UNL1        0.1465
     11 C          -4.0328   -2.5066   -0.8100 C.ar    1  UNL1        0.0231
     12 C          -4.3826   -3.8380   -0.5617 C.ar    1  UNL1        0.1239
     13 O          -5.5114   -4.3975   -1.1564 O.3     1  UNL1       -0.5065
     14 C          -3.5958   -4.6165    0.2902 C.ar    1  UNL1        0.0223
     15 C          -2.4533   -4.0781    0.9006 C.ar    1  UNL1        0.1348
     16 O          -1.6867   -4.8819    1.7453 O.3     1  UNL1       -0.5058
     17 C          -2.0935   -2.7318    0.6520 C.ar    1  UNL1        0.1092
     18 C          -0.9543   -2.1220    1.2149 C.ar    1  UNL1        0.2382
     19 O          -0.1839   -2.7615    1.9819 O.2     1  UNL1       -0.2830
     20 C          -1.3411    1.3644   -0.2311 C.ar    1  UNL1        0.0247
     21 C          -1.5391    1.8286   -1.5408 C.ar    1  UNL1       -0.0057
     22 C          -1.3569    3.1807   -1.8529 C.ar    1  UNL1        0.1589
     23 O          -1.5468    3.6038   -3.1680 O.3     1  UNL1       -0.5033
     24 C          -0.9871    4.0871   -0.8448 C.ar    1  UNL1        0.1583
     25 O          -0.8000    5.4344   -1.1497 O.3     1  UNL1       -0.5033
     26 C          -0.8111    3.6311    0.4683 C.ar    1  UNL1       -0.0159
     27 C          -0.9951    2.2811    0.7760 C.ar    1  UNL1       -0.0473
     28 C           2.6645    0.8784    1.4311 C.3     1  UNL1        0.1454
     29 O           2.0593    2.0033    2.0141 O.3     1  UNL1       -0.3829
     30 C           3.8606    1.3133    0.5521 C.3     1  UNL1        0.1148
     31 O           5.0222    1.3197    1.3451 O.3     1  UNL1       -0.3864
     32 H           5.3945   -0.0495   -1.9839 H       1  UNL1        0.2100
     33 H           3.4164    0.7777   -1.5080 H       1  UNL1        0.0643
     34 H           4.1223   -1.4602    0.5072 H       1  UNL1        0.0588
     35 H           3.6790   -1.6945   -1.2081 H       1  UNL1        0.0588
     36 H           1.2836    0.7734   -0.2361 H       1  UNL1        0.1084
     37 H          -4.6434   -1.9009   -1.4683 H       1  UNL1        0.0691
     38 H          -6.1035   -3.8603   -1.7790 H       1  UNL1        0.2921
     39 H          -3.8740   -5.6461    0.4776 H       1  UNL1        0.0691
     40 H          -1.9333   -5.8471    1.9311 H       1  UNL1        0.2922
     41 H          -1.8194    1.1370   -2.3265 H       1  UNL1        0.0662
     42 H          -1.4271    4.5709   -3.4447 H       1  UNL1        0.2923
     43 H          -0.5338    6.1070   -0.4400 H       1  UNL1        0.2923
     44 H          -0.5363    4.3239    1.2535 H       1  UNL1        0.0655
     45 H          -0.8767    1.9556    1.8017 H       1  UNL1        0.0626
     46 H           3.0154    0.1871    2.2344 H       1  UNL1        0.0683
     47 H           2.6722    2.3178    2.7291 H       1  UNL1        0.2102
     48 H           3.6620    2.3425    0.1657 H       1  UNL1        0.0648
     49 H           5.6397    1.9913    0.9530 H       1  UNL1        0.2100
@<TRIPOS>BOND
     1     1     2    1
     2     2     3    1
     3     3     4    1
     4     4     5    1
     5     5     6    1
     6     6     7    1
     7     7     8   ar
     8     8     9   ar
     9     9    10   ar
    10    10    11   ar
    11    11    12   ar
    12    12    13    1
    13    12    14   ar
    14    14    15   ar
    15    15    16    1
    16    15    17   ar
    17    17    18   ar
    18    18    19    2
    19     8    20    1
    20    20    21   ar
    21    21    22   ar
    22    22    23    1
    23    22    24   ar
    24    24    25    1
    25    24    26   ar
    26    26    27   ar
    27     5    28    1
    28    28    29    1
    29    28    30    1
    30    30    31    1
    31    30     2    1
    32    18     7   ar
    33    27    20   ar
    34    17    10   ar
    35     1    32    1
    36     2    33    1
    37     3    34    1
    38     3    35    1
    39     5    36    1
    40    11    37    1
    41    13    38    1
    42    14    39    1
    43    16    40    1
    44    21    41    1
    45    23    42    1
    46    25    43    1
    47    26    44    1
    48    27    45    1
    49    28    46    1
    50    29    47    1
    51    30    48    1
    52    31    49    1
