@<TRIPOS>MOLECULE
Quercetin 3-O-xylosyl-glucuronide
 69 73 0 0 0
SMALL
GASTEIGER

@<TRIPOS>ATOM
      1 C           7.1293    0.0376    1.4483 C.3     1  UNL1        0.1141
      2 C           8.1792    0.3574    0.3732 C.3     1  UNL1        0.0731
      3 O           9.1017   -0.6917    0.2500 O.3     1  UNL1       -0.3924
      4 O           6.1854    1.0775    1.5294 O.3     1  UNL1       -0.3312
      5 C           4.9756    0.5139    1.9931 C.3     1  UNL1        0.2338
      6 O           3.9134    0.9685    1.1557 O.3     1  UNL1       -0.4304
      7 C           2.5606    0.8243    1.4839 C.2     1  UNL1        0.3414
      8 O           2.2169    0.3136    2.5856 O.2     1  UNL1       -0.2477
      9 C           1.5162    1.3294    0.5344 C.3     1  UNL1        0.1872
     10 O           0.4266    0.4264    0.5161 O.3     1  UNL1       -0.3221
     11 C          -0.4267    0.6856   -0.5902 C.3     1  UNL1        0.2316
     12 O          -1.6099   -0.0937   -0.4026 O.3     1  UNL1       -0.4532
     13 C          -2.6388   -0.3686   -1.3299 C.ar    1  UNL1        0.2138
     14 C          -3.7875   -1.0298   -0.8555 C.ar    1  UNL1        0.1810
     15 O          -4.7628   -1.3604   -1.6912 O.2     1  UNL1       -0.4507
     16 C          -4.7330   -1.0998   -2.9900 C.ar    1  UNL1        0.1465
     17 C          -5.8354   -1.4635   -3.7673 C.ar    1  UNL1        0.0231
     18 C          -5.8585   -1.1865   -5.1344 C.ar    1  UNL1        0.1239
     19 O          -6.9652   -1.5259   -5.9097 O.3     1  UNL1       -0.5065
     20 C          -4.7606   -0.5723   -5.7340 C.ar    1  UNL1        0.0223
     21 C          -3.6240   -0.2352   -4.9887 C.ar    1  UNL1        0.1348
     22 O          -2.5407    0.2799   -5.7070 O.3     1  UNL1       -0.5058
     23 C          -3.6151   -0.4555   -3.5769 C.ar    1  UNL1        0.1092
     24 C          -2.5733   -0.0482   -2.7069 C.ar    1  UNL1        0.2382
     25 O          -1.6046    0.6194   -3.1460 O.2     1  UNL1       -0.2830
     26 C          -3.9534   -1.3778    0.5737 C.ar    1  UNL1        0.0247
     27 C          -3.6851   -0.4423    1.5871 C.ar    1  UNL1       -0.0057
     28 C          -3.8600   -0.7730    2.9364 C.ar    1  UNL1        0.1589
     29 O          -3.5663    0.2037    3.8902 O.3     1  UNL1       -0.5033
     30 C          -4.3268   -2.0634    3.2822 C.ar    1  UNL1        0.1583
     31 O          -4.5172   -2.4680    4.6049 O.3     1  UNL1       -0.5033
     32 C          -4.6174   -2.9831    2.2682 C.ar    1  UNL1       -0.0159
     33 C          -4.4407   -2.6434    0.9256 C.ar    1  UNL1       -0.0473
     34 C          -0.8014    2.1969   -0.7109 C.3     1  UNL1        0.1455
     35 O          -0.1074    2.7617   -1.7950 O.3     1  UNL1       -0.3829
     36 C          -0.4481    2.9563    0.5859 C.3     1  UNL1        0.1157
     37 O          -1.2598    2.4984    1.6387 O.3     1  UNL1       -0.3863
     38 C           1.0364    2.7430    0.9579 C.3     1  UNL1        0.1202
     39 O           1.8206    3.7209    0.3231 O.3     1  UNL1       -0.3860
     40 C           5.0751   -1.0182    1.9554 C.3     1  UNL1        0.1455
     41 O           5.1601   -1.5196    3.2651 O.3     1  UNL1       -0.3829
     42 C           6.3689   -1.2650    1.2102 C.3     1  UNL1        0.1152
     43 O           6.1271   -1.5091   -0.1573 O.3     1  UNL1       -0.3864
     44 H           7.6536   -0.0302    2.4295 H       1  UNL1        0.0647
     45 H           8.7077    1.3015    0.6377 H       1  UNL1        0.0584
     46 H           7.6880    0.5226   -0.6088 H       1  UNL1        0.0584
     47 H           9.6934   -0.6443    1.0458 H       1  UNL1        0.2095
     48 H           4.8000    0.8758    3.0314 H       1  UNL1        0.1085
     49 H           1.9898    1.3764   -0.4758 H       1  UNL1        0.0742
     50 H           0.0951    0.3253   -1.5040 H       1  UNL1        0.1084
     51 H          -6.6840   -1.9494   -3.3012 H       1  UNL1        0.0691
     52 H          -7.7780   -1.9759   -5.5049 H       1  UNL1        0.2921
     53 H          -4.7754   -0.3848   -6.8008 H       1  UNL1        0.0691
     54 H          -1.5836    0.2731   -5.3880 H       1  UNL1        0.2922
     55 H          -3.3591    0.5580    1.3320 H       1  UNL1        0.0662
     56 H          -3.6676    0.0691    4.8858 H       1  UNL1        0.2923
     57 H          -4.3284   -1.8838    5.4066 H       1  UNL1        0.2923
     58 H          -4.9824   -3.9699    2.5237 H       1  UNL1        0.0655
     59 H          -4.6712   -3.3747    0.1604 H       1  UNL1        0.0626
     60 H          -1.8973    2.2966   -0.8932 H       1  UNL1        0.0683
     61 H          -0.5611    3.6172   -2.0147 H       1  UNL1        0.2102
     62 H          -0.6299    4.0475    0.4391 H       1  UNL1        0.0648
     63 H          -2.1606    2.8930    1.5011 H       1  UNL1        0.2100
     64 H           1.1247    2.8719    2.0639 H       1  UNL1        0.0652
     65 H           2.7042    3.7177    0.7760 H       1  UNL1        0.2100
     66 H           4.2054   -1.4762    1.4268 H       1  UNL1        0.0683
     67 H           5.0132   -2.4997    3.2039 H       1  UNL1        0.2102
     68 H           6.9291   -2.1288    1.6315 H       1  UNL1        0.0648
     69 H           5.6011   -0.7489   -0.5217 H       1  UNL1        0.2100
@<TRIPOS>BOND
     1     1     2    1
     2     2     3    1
     3     1     4    1
     4     4     5    1
     5     5     6    1
     6     6     7    1
     7     7     8    2
     8     7     9    1
     9     9    10    1
    10    10    11    1
    11    11    12    1
    12    12    13    1
    13    13    14   ar
    14    14    15   ar
    15    15    16   ar
    16    16    17   ar
    17    17    18   ar
    18    18    19    1
    19    18    20   ar
    20    20    21   ar
    21    21    22    1
    22    21    23   ar
    23    23    24   ar
    24    24    25    2
    25    14    26    1
    26    26    27   ar
    27    27    28   ar
    28    28    29    1
    29    28    30   ar
    30    30    31    1
    31    30    32   ar
    32    32    33   ar
    33    11    34    1
    34    34    35    1
    35    34    36    1
    36    36    37    1
    37    36    38    1
    38    38    39    1
    39     5    40    1
    40    40    41    1
    41    40    42    1
    42    42    43    1
    43    42     1    1
    44    38     9    1
    45    24    13   ar
    46    33    26   ar
    47    23    16   ar
    48     1    44    1
    49     2    45    1
    50     2    46    1
    51     3    47    1
    52     5    48    1
    53     9    49    1
    54    11    50    1
    55    17    51    1
    56    19    52    1
    57    20    53    1
    58    22    54    1
    59    27    55    1
    60    29    56    1
    61    31    57    1
    62    32    58    1
    63    33    59    1
    64    34    60    1
    65    35    61    1
    66    36    62    1
    67    37    63    1
    68    38    64    1
    69    39    65    1
    70    40    66    1
    71    41    67    1
    72    42    68    1
    73    43    69    1
