@<TRIPOS>MOLECULE
Isorhamnetin 3-O-glucoside 7-O-rhamnoside
 76 80 0 0 0
SMALL
GASTEIGER

@<TRIPOS>ATOM
      1 C           5.5996   -0.4466   -1.3700 C.3     1  UNL1        0.0883
      2 C           4.9995   -0.6772   -2.7579 C.3     1  UNL1       -0.0360
      3 O           5.1109    0.7936   -0.8804 O.3     1  UNL1       -0.3339
      4 C           5.5287    1.0346    0.4563 C.3     1  UNL1        0.2307
      5 O           5.0445    0.0246    1.3482 O.3     1  UNL1       -0.4606
      6 C           3.6904   -0.2542    1.5910 C.ar    1  UNL1        0.1310
      7 C           3.3787   -1.3161    2.4444 C.ar    1  UNL1        0.0226
      8 C           2.0466   -1.6546    2.7214 C.ar    1  UNL1        0.1348
      9 O           1.7768   -2.7242    3.5761 O.3     1  UNL1       -0.5058
     10 C           0.9974   -0.9118    2.1324 C.ar    1  UNL1        0.1092
     11 C          -0.3661   -1.1977    2.3499 C.ar    1  UNL1        0.2382
     12 O          -0.7235   -2.1515    3.0936 O.2     1  UNL1       -0.2830
     13 C          -1.3439   -0.4196    1.7217 C.ar    1  UNL1        0.2138
     14 O          -2.6967   -0.7363    1.8842 O.3     1  UNL1       -0.4532
     15 C          -3.3745   -1.5993    0.9727 C.3     1  UNL1        0.2311
     16 O          -3.4054   -0.9760   -0.3030 O.3     1  UNL1       -0.3313
     17 C          -4.2576   -1.6764   -1.1848 C.3     1  UNL1        0.1140
     18 C          -3.9750   -1.2128   -2.6168 C.3     1  UNL1        0.0731
     19 O          -2.6482   -1.5090   -2.9546 O.3     1  UNL1       -0.3924
     20 C          -5.7352   -1.4103   -0.7955 C.3     1  UNL1        0.1120
     21 O          -6.5637   -2.4550   -1.2446 O.3     1  UNL1       -0.3865
     22 C          -5.8925   -1.1835    0.7316 C.3     1  UNL1        0.1152
     23 O          -5.8245    0.1946    1.0000 O.3     1  UNL1       -0.3864
     24 C          -4.7946   -1.9148    1.5328 C.3     1  UNL1        0.1454
     25 O          -5.0351   -3.2984    1.4869 O.3     1  UNL1       -0.3829
     26 C          -0.9414    0.6555    0.9078 C.ar    1  UNL1        0.1810
     27 O           0.3522    0.8887    0.7102 O.2     1  UNL1       -0.4507
     28 C           1.3151    0.1668    1.2737 C.ar    1  UNL1        0.1465
     29 C           2.6491    0.4888    1.0092 C.ar    1  UNL1        0.0235
     30 C          -1.9249    1.5309    0.2413 C.ar    1  UNL1        0.0247
     31 C          -2.9827    2.1080    0.9633 C.ar    1  UNL1       -0.0055
     32 C          -3.9294    2.9245    0.3141 C.ar    1  UNL1        0.1619
     33 O          -4.9903    3.5325    1.0034 O.3     1  UNL1       -0.4914
     34 C          -5.1628    3.4909    2.4165 C.3     1  UNL1        0.0790
     35 C          -3.8139    3.1463   -1.0656 C.ar    1  UNL1        0.1585
     36 O          -4.7592    3.9361   -1.7178 O.3     1  UNL1       -0.5033
     37 C          -2.7497    2.5831   -1.7821 C.ar    1  UNL1       -0.0159
     38 C          -1.8035    1.7908   -1.1302 C.ar    1  UNL1       -0.0473
     39 C           7.0631    1.1398    0.5481 C.3     1  UNL1        0.1454
     40 O           7.5035    2.2671   -0.1665 O.3     1  UNL1       -0.3829
     41 C           7.7063   -0.1345   -0.0287 C.3     1  UNL1        0.1151
     42 O           9.1096   -0.0332   -0.0457 O.3     1  UNL1       -0.3864
     43 C           7.1455   -0.4441   -1.4289 C.3     1  UNL1        0.1096
     44 O           7.6198   -1.7021   -1.8393 O.3     1  UNL1       -0.3866
     45 H           5.2513   -1.2872   -0.7268 H       1  UNL1        0.0621
     46 H           3.8911   -0.6340   -2.6973 H       1  UNL1        0.0255
     47 H           5.3466    0.1046   -3.4670 H       1  UNL1        0.0255
     48 H           5.2843   -1.6774   -3.1472 H       1  UNL1        0.0255
     49 H           5.1088    2.0116    0.7806 H       1  UNL1        0.1084
     50 H           4.1823   -1.8869    2.8931 H       1  UNL1        0.0691
     51 H           2.5193   -3.2649    4.0042 H       1  UNL1        0.2922
     52 H          -2.7851   -2.5428    0.8993 H       1  UNL1        0.1084
     53 H          -4.0410   -2.7714   -1.1474 H       1  UNL1        0.0647
     54 H          -4.1431   -0.1145   -2.6963 H       1  UNL1        0.0584
     55 H          -4.6623   -1.7356   -3.3192 H       1  UNL1        0.0584
     56 H          -2.5156   -1.1656   -3.8762 H       1  UNL1        0.2095
     57 H          -6.0848   -0.4838   -1.3044 H       1  UNL1        0.0647
     58 H          -6.2982   -3.2817   -0.7647 H       1  UNL1        0.2100
     59 H          -6.8924   -1.5645    1.0499 H       1  UNL1        0.0648
     60 H          -6.2468    0.3364    1.8873 H       1  UNL1        0.2100
     61 H          -4.8650   -1.5790    2.5949 H       1  UNL1        0.0683
     62 H          -4.5035   -3.7069    2.2196 H       1  UNL1        0.2102
     63 H           2.8603    1.3201    0.3508 H       1  UNL1        0.0691
     64 H          -3.0568    1.9243    2.0268 H       1  UNL1        0.0662
     65 H          -6.0667    4.0732    2.6885 H       1  UNL1        0.0660
     66 H          -4.2825    3.9426    2.9208 H       1  UNL1        0.0660
     67 H          -5.2999    2.4442    2.7578 H       1  UNL1        0.0660
     68 H          -4.7036    4.1164   -2.7135 H       1  UNL1        0.2923
     69 H          -2.6562    2.7582   -2.8462 H       1  UNL1        0.0655
     70 H          -0.9921    1.3557   -1.7011 H       1  UNL1        0.0626
     71 H           7.3631    1.2321    1.6184 H       1  UNL1        0.0683
     72 H           7.3176    3.0590    0.4029 H       1  UNL1        0.2102
     73 H           7.4459   -0.9826    0.6436 H       1  UNL1        0.0648
     74 H           9.3607    0.6523   -0.7183 H       1  UNL1        0.2100
     75 H           7.4826    0.3535   -2.1350 H       1  UNL1        0.0646
     76 H           7.7385   -1.6633   -2.8242 H       1  UNL1        0.2100
@<TRIPOS>BOND
     1     1     2    1
     2     1     3    1
     3     3     4    1
     4     4     5    1
     5     5     6    1
     6     6     7   ar
     7     7     8   ar
     8     8     9    1
     9     8    10   ar
    10    10    11   ar
    11    11    12    2
    12    11    13   ar
    13    13    14    1
    14    14    15    1
    15    15    16    1
    16    16    17    1
    17    17    18    1
    18    18    19    1
    19    17    20    1
    20    20    21    1
    21    20    22    1
    22    22    23    1
    23    22    24    1
    24    24    25    1
    25    13    26   ar
    26    26    27   ar
    27    27    28   ar
    28    28    29   ar
    29    26    30    1
    30    30    31   ar
    31    31    32   ar
    32    32    33    1
    33    33    34    1
    34    32    35   ar
    35    35    36    1
    36    35    37   ar
    37    37    38   ar
    38     4    39    1
    39    39    40    1
    40    39    41    1
    41    41    42    1
    42    41    43    1
    43    43    44    1
    44    43     1    1
    45    29     6   ar
    46    38    30   ar
    47    28    10   ar
    48    24    15    1
    49     1    45    1
    50     2    46    1
    51     2    47    1
    52     2    48    1
    53     4    49    1
    54     7    50    1
    55     9    51    1
    56    15    52    1
    57    17    53    1
    58    18    54    1
    59    18    55    1
    60    19    56    1
    61    20    57    1
    62    21    58    1
    63    22    59    1
    64    23    60    1
    65    24    61    1
    66    25    62    1
    67    29    63    1
    68    31    64    1
    69    34    65    1
    70    34    66    1
    71    34    67    1
    72    36    68    1
    73    37    69    1
    74    38    70    1
    75    39    71    1
    76    40    72    1
    77    41    73    1
    78    42    74    1
    79    43    75    1
    80    44    76    1
