@<TRIPOS>MOLECULE
Isorhamnetin 3-O-rutinoside
 55 58 0 0 0
SMALL
GASTEIGER

@<TRIPOS>ATOM
      1 C          -0.1356   -4.5254    0.1421 C.3     1  UNL1        0.0790
      2 O          -0.8927   -4.1947    1.3021 O.3     1  UNL1       -0.4914
      3 C          -1.4814   -2.9419    1.5353 C.ar    1  UNL1        0.1619
      4 C          -2.1367   -2.7278    2.7556 C.ar    1  UNL1        0.1585
      5 O          -2.1961   -3.7554    3.6955 O.3     1  UNL1       -0.5033
      6 C          -2.7281   -1.4878    3.0273 C.ar    1  UNL1       -0.0159
      7 C          -2.6572   -0.4535    2.0924 C.ar    1  UNL1       -0.0473
      8 C          -1.9908   -0.6422    0.8723 C.ar    1  UNL1        0.0247
      9 C          -1.4307   -1.9014    0.5871 C.ar    1  UNL1       -0.0055
     10 C          -1.9209    0.4771   -0.0989 C.ar    1  UNL1        0.1810
     11 C          -0.7453    0.7679   -0.8186 C.ar    1  UNL1        0.2138
     12 O           0.3922   -0.0261   -0.5680 O.3     1  UNL1       -0.4532
     13 C           1.7541    0.2339   -0.9135 C.3     1  UNL1        0.2311
     14 O           2.5094   -0.9161   -0.5960 O.3     1  UNL1       -0.3310
     15 C           3.0931   -0.6776    0.6623 C.3     1  UNL1        0.1167
     16 C           4.2926   -1.6251    0.8978 C.3     1  UNL1        0.0812
     17 C           3.8448   -3.0918    0.9372 C.3     1  UNL1       -0.0364
     18 O           4.9676   -1.2941    2.0860 O.3     1  UNL1       -0.3894
     19 C           3.4466    0.8092    0.7091 C.3     1  UNL1        0.1155
     20 O           4.7103    1.0842    0.1462 O.3     1  UNL1       -0.3863
     21 C           2.3101    1.4192   -0.0955 C.3     1  UNL1        0.1454
     22 O           2.7220    2.5084   -0.8892 O.3     1  UNL1       -0.3829
     23 C          -0.7681    1.8458   -1.7332 C.ar    1  UNL1        0.2382
     24 O           0.2746    2.1461   -2.3652 O.2     1  UNL1       -0.2830
     25 C          -1.9567    2.5962   -1.9102 C.ar    1  UNL1        0.1092
     26 C          -2.1019    3.6782   -2.8317 C.ar    1  UNL1        0.1348
     27 O          -1.1397    4.0292   -3.7834 O.3     1  UNL1       -0.5058
     28 C          -3.2789    4.4370   -2.8272 C.ar    1  UNL1        0.0223
     29 C          -4.3432    4.1097   -1.9842 C.ar    1  UNL1        0.1239
     30 O          -5.5174    4.8593   -1.9978 O.3     1  UNL1       -0.5065
     31 C          -4.2353    3.0173   -1.1278 C.ar    1  UNL1        0.0231
     32 C          -3.0587    2.2656   -1.0821 C.ar    1  UNL1        0.1465
     33 O          -2.9958    1.2410   -0.2437 O.2     1  UNL1       -0.4507
     34 H           0.7315   -3.8381    0.0434 H       1  UNL1        0.0660
     35 H          -0.7767   -4.4650   -0.7624 H       1  UNL1        0.0660
     36 H           0.2431   -5.5633    0.2399 H       1  UNL1        0.0660
     37 H          -2.6620   -3.6327    4.5870 H       1  UNL1        0.2923
     38 H          -3.2376   -1.3221    3.9680 H       1  UNL1        0.0655
     39 H          -3.1096    0.5019    2.3290 H       1  UNL1        0.0626
     40 H          -0.9722   -2.0737   -0.3763 H       1  UNL1        0.0662
     41 H           1.8464    0.3910   -2.0077 H       1  UNL1        0.1084
     42 H           2.3286   -0.8817    1.4499 H       1  UNL1        0.0650
     43 H           5.0104   -1.5229    0.0557 H       1  UNL1        0.0617
     44 H           3.3958   -3.3845   -0.0356 H       1  UNL1        0.0255
     45 H           4.7209   -3.7469    1.1287 H       1  UNL1        0.0255
     46 H           3.0962   -3.2526    1.7424 H       1  UNL1        0.0255
     47 H           4.3199   -1.3839    2.8338 H       1  UNL1        0.2099
     48 H           3.4332    1.1809    1.7572 H       1  UNL1        0.0648
     49 H           4.7426    0.6800   -0.7604 H       1  UNL1        0.2100
     50 H           1.5328    1.7844    0.6124 H       1  UNL1        0.0683
     51 H           3.2340    2.1612   -1.6647 H       1  UNL1        0.2102
     52 H          -0.4105    3.4167   -4.1166 H       1  UNL1        0.2922
     53 H          -3.3771    5.2709   -3.5115 H       1  UNL1        0.0691
     54 H          -5.6292    5.6583   -2.6111 H       1  UNL1        0.2921
     55 H          -5.0665    2.7575   -0.4835 H       1  UNL1        0.0691
@<TRIPOS>BOND
     1     1     2    1
     2     2     3    1
     3     3     4   ar
     4     4     5    1
     5     4     6   ar
     6     6     7   ar
     7     7     8   ar
     8     8     9   ar
     9     8    10    1
    10    10    11   ar
    11    11    12    1
    12    12    13    1
    13    13    14    1
    14    14    15    1
    15    15    16    1
    16    16    17    1
    17    16    18    1
    18    15    19    1
    19    19    20    1
    20    19    21    1
    21    21    22    1
    22    11    23   ar
    23    23    24    2
    24    23    25   ar
    25    25    26   ar
    26    26    27    1
    27    26    28   ar
    28    28    29   ar
    29    29    30    1
    30    29    31   ar
    31    31    32   ar
    32    32    33   ar
    33     9     3   ar
    34    33    10   ar
    35    21    13    1
    36    32    25   ar
    37     1    34    1
    38     1    35    1
    39     1    36    1
    40     5    37    1
    41     6    38    1
    42     7    39    1
    43     9    40    1
    44    13    41    1
    45    15    42    1
    46    16    43    1
    47    17    44    1
    48    17    45    1
    49    17    46    1
    50    18    47    1
    51    19    48    1
    52    20    49    1
    53    21    50    1
    54    22    51    1
    55    27    52    1
    56    28    53    1
    57    30    54    1
    58    31    55    1
