@<TRIPOS>MOLECULE
Kaempferol 3-O-glucuronide
 51 54 0 0 0
SMALL
GASTEIGER

@<TRIPOS>ATOM
      1 O           4.1250    0.9833   -3.2438 O.3     1  UNL1       -0.3863
      2 C           3.4310   -0.0477   -2.5858 C.3     1  UNL1        0.1157
      3 C           1.9644    0.3830   -2.3319 C.3     1  UNL1        0.1455
      4 O           1.8635    1.7785   -2.1796 O.3     1  UNL1       -0.3829
      5 C           1.4231   -0.2998   -1.0611 C.3     1  UNL1        0.2316
      6 O           0.0544    0.0698   -0.9039 O.3     1  UNL1       -0.4532
      7 C          -0.8508   -0.3799    0.0796 C.ar    1  UNL1        0.2138
      8 C          -2.0977    0.2666    0.1705 C.ar    1  UNL1        0.1809
      9 O          -3.0024   -0.1471    1.0477 O.2     1  UNL1       -0.4507
     10 C          -2.8075   -1.1625    1.8768 C.ar    1  UNL1        0.1465
     11 C          -3.8198   -1.4842    2.7842 C.ar    1  UNL1        0.0231
     12 C          -3.6513   -2.5274    3.6903 C.ar    1  UNL1        0.1239
     13 O          -4.6642   -2.8162    4.6024 O.3     1  UNL1       -0.5065
     14 C          -2.4745   -3.2790    3.6707 C.ar    1  UNL1        0.0223
     15 C          -1.4598   -3.0075    2.7446 C.ar    1  UNL1        0.1348
     16 O          -0.3700   -3.8835    2.7436 O.3     1  UNL1       -0.5058
     17 C          -1.5963   -1.8991    1.8531 C.ar    1  UNL1        0.1092
     18 C          -0.5904   -1.4598    0.9567 C.ar    1  UNL1        0.2382
     19 O           0.5397   -2.0087    0.9497 O.2     1  UNL1       -0.2830
     20 C          -2.4480    1.4156   -0.6954 C.ar    1  UNL1        0.0213
     21 C          -3.7245    1.4790   -1.2779 C.ar    1  UNL1       -0.0475
     22 C          -4.0806    2.5634   -2.0857 C.ar    1  UNL1       -0.0195
     23 C          -3.1729    3.6032   -2.3087 C.ar    1  UNL1        0.1169
     24 O          -3.5407    4.6761   -3.1174 O.3     1  UNL1       -0.5068
     25 C          -1.9056    3.5585   -1.7134 C.ar    1  UNL1       -0.0195
     26 C          -1.5470    2.4761   -0.9046 C.ar    1  UNL1       -0.0475
     27 O           2.1392    0.0537    0.1201 O.3     1  UNL1       -0.3221
     28 C           3.5247    0.3248   -0.0763 C.3     1  UNL1        0.1869
     29 C           4.1567   -0.4303   -1.2718 C.3     1  UNL1        0.1202
     30 O           4.0586   -1.8206   -1.0744 O.3     1  UNL1       -0.3860
     31 C           4.2698    0.0199    1.1897 C.2     1  UNL1        0.3367
     32 O           5.3813    0.7814    1.5374 O.3     1  UNL1       -0.4788
     33 O           3.9200   -0.9487    1.9170 O.2     1  UNL1       -0.2480
     34 H           4.9202    0.5698   -3.6714 H       1  UNL1        0.2100
     35 H           3.4065   -0.9439   -3.2516 H       1  UNL1        0.0648
     36 H           1.3377    0.0528   -3.1951 H       1  UNL1        0.0683
     37 H           1.7761    2.1650   -3.0899 H       1  UNL1        0.2102
     38 H           1.4764   -1.3993   -1.2181 H       1  UNL1        0.1084
     39 H          -4.7373   -0.9084    2.7947 H       1  UNL1        0.0691
     40 H          -4.5741   -3.5703    5.2734 H       1  UNL1        0.2921
     41 H          -2.3584   -4.1064    4.3600 H       1  UNL1        0.0691
     42 H           0.2634   -4.0142    1.9695 H       1  UNL1        0.2922
     43 H          -4.4406    0.6823   -1.1176 H       1  UNL1        0.0626
     44 H          -5.0636    2.5959   -2.5381 H       1  UNL1        0.0654
     45 H          -2.9060    5.4454   -3.2972 H       1  UNL1        0.2921
     46 H          -1.2010    4.3655   -1.8696 H       1  UNL1        0.0654
     47 H          -0.5753    2.4796   -0.4273 H       1  UNL1        0.0626
     48 H           3.6373    1.4168   -0.2574 H       1  UNL1        0.0742
     49 H           5.2321   -0.1406   -1.3592 H       1  UNL1        0.0652
     50 H           4.8521   -2.0995   -0.5470 H       1  UNL1        0.2100
     51 H           5.9069    0.5788    2.3793 H       1  UNL1        0.2951
@<TRIPOS>BOND
     1     1     2    1
     2     2     3    1
     3     3     4    1
     4     3     5    1
     5     5     6    1
     6     6     7    1
     7     7     8   ar
     8     8     9   ar
     9     9    10   ar
    10    10    11   ar
    11    11    12   ar
    12    12    13    1
    13    12    14   ar
    14    14    15   ar
    15    15    16    1
    16    15    17   ar
    17    17    18   ar
    18    18    19    2
    19     8    20    1
    20    20    21   ar
    21    21    22   ar
    22    22    23   ar
    23    23    24    1
    24    23    25   ar
    25    25    26   ar
    26     5    27    1
    27    27    28    1
    28    28    29    1
    29    29    30    1
    30    28    31    1
    31    31    32    1
    32    31    33    2
    33    29     2    1
    34    18     7   ar
    35    26    20   ar
    36    17    10   ar
    37     1    34    1
    38     2    35    1
    39     3    36    1
    40     4    37    1
    41     5    38    1
    42    11    39    1
    43    13    40    1
    44    14    41    1
    45    16    42    1
    46    21    43    1
    47    22    44    1
    48    24    45    1
    49    25    46    1
    50    26    47    1
    51    28    48    1
    52    29    49    1
    53    30    50    1
    54    32    51    1
