@<TRIPOS>MOLECULE
Isorhamnetin 7-O-rhamnoside
 56 59 0 0 0
SMALL
GASTEIGER

@<TRIPOS>ATOM
      1 C           5.6474    3.2691   -0.8029 C.3     1  UNL1        0.0790
      2 O           6.5586    2.2088   -1.0733 O.3     1  UNL1       -0.4914
      3 C           6.2814    0.8490   -0.8615 C.ar    1  UNL1        0.1619
      4 C           7.2729   -0.0911   -1.1744 C.ar    1  UNL1        0.1585
      5 O           8.4978    0.3414   -1.6800 O.3     1  UNL1       -0.5033
      6 C           7.0310   -1.4573   -0.9840 C.ar    1  UNL1       -0.0159
      7 C           5.8055   -1.8921   -0.4761 C.ar    1  UNL1       -0.0473
      8 C           4.8077   -0.9629   -0.1377 C.ar    1  UNL1        0.0247
      9 C           5.0460    0.4051   -0.3494 C.ar    1  UNL1       -0.0055
     10 C           3.4908   -1.4016    0.3784 C.ar    1  UNL1        0.1807
     11 C           3.3672   -2.4099    1.3536 C.ar    1  UNL1        0.2082
     12 O           4.5061   -3.0031    1.9042 O.3     1  UNL1       -0.5007
     13 C           2.0842   -2.7851    1.7817 C.ar    1  UNL1        0.2379
     14 O           1.9604   -3.6945    2.6467 O.2     1  UNL1       -0.2830
     15 C           0.9529   -2.1356    1.2461 C.ar    1  UNL1        0.1092
     16 C          -0.3728   -2.4512    1.6252 C.ar    1  UNL1        0.1348
     17 O          -0.6311   -3.4522    2.5628 O.3     1  UNL1       -0.5058
     18 C          -1.4469   -1.7527    1.0539 C.ar    1  UNL1        0.0226
     19 C          -1.2228   -0.7358    0.1089 C.ar    1  UNL1        0.1310
     20 O          -2.2645   -0.0048   -0.4872 O.3     1  UNL1       -0.4606
     21 C          -3.6525   -0.0889   -0.1544 C.3     1  UNL1        0.2308
     22 O          -4.3788    0.5094   -1.2194 O.3     1  UNL1       -0.3313
     23 C          -5.7177    0.7682   -0.8454 C.3     1  UNL1        0.1140
     24 C          -6.5539    1.0206   -2.1056 C.3     1  UNL1        0.0731
     25 O          -5.9910    2.0528   -2.8689 O.3     1  UNL1       -0.3924
     26 C          -5.7725    1.9739    0.1263 C.3     1  UNL1        0.1120
     27 O          -6.9420    1.8788    0.8999 O.3     1  UNL1       -0.3865
     28 C          -4.5221    2.0044    1.0492 C.3     1  UNL1        0.1152
     29 O          -3.5580    2.9137    0.5731 O.3     1  UNL1       -0.3864
     30 C          -3.9061    0.6021    1.2259 C.3     1  UNL1        0.1454
     31 O          -4.7858   -0.1784    1.9964 O.3     1  UNL1       -0.3829
     32 C           0.0877   -0.4319   -0.2667 C.ar    1  UNL1        0.0235
     33 C           1.1700   -1.1179    0.2901 C.ar    1  UNL1        0.1465
     34 O           2.4016   -0.8015   -0.0930 O.2     1  UNL1       -0.4507
     35 H           5.3859    3.2821    0.2763 H       1  UNL1        0.0660
     36 H           4.7303    3.1507   -1.4179 H       1  UNL1        0.0660
     37 H           6.1273    4.2346   -1.0635 H       1  UNL1        0.0660
     38 H           9.2345   -0.3126   -1.9173 H       1  UNL1        0.2923
     39 H           7.7910   -2.1852   -1.2385 H       1  UNL1        0.0655
     40 H           5.6311   -2.9553   -0.3722 H       1  UNL1        0.0626
     41 H           4.2703    1.1180   -0.1021 H       1  UNL1        0.0662
     42 H           4.4532   -3.7242    2.6137 H       1  UNL1        0.2924
     43 H          -1.5754   -3.6889    2.8447 H       1  UNL1        0.2922
     44 H          -2.4494   -2.0165    1.3529 H       1  UNL1        0.0691
     45 H          -3.9420   -1.1627   -0.1122 H       1  UNL1        0.1084
     46 H          -6.1597   -0.1302   -0.3501 H       1  UNL1        0.0647
     47 H          -6.5841    0.0870   -2.7110 H       1  UNL1        0.0584
     48 H          -7.5962    1.2853   -1.8173 H       1  UNL1        0.0584
     49 H          -6.5825    2.1654   -3.6578 H       1  UNL1        0.2095
     50 H          -5.7994    2.9235   -0.4596 H       1  UNL1        0.0647
     51 H          -7.1124    2.7813    1.2776 H       1  UNL1        0.2100
     52 H          -4.8267    2.3697    2.0550 H       1  UNL1        0.0648
     53 H          -3.3208    2.6574   -0.3552 H       1  UNL1        0.2100
     54 H          -2.9457    0.7224    1.7811 H       1  UNL1        0.0683
     55 H          -4.2469   -0.8984    2.4152 H       1  UNL1        0.2102
     56 H           0.2667    0.3477   -0.9972 H       1  UNL1        0.0691
@<TRIPOS>BOND
     1     1     2    1
     2     2     3    1
     3     3     4   ar
     4     4     5    1
     5     4     6   ar
     6     6     7   ar
     7     7     8   ar
     8     8     9   ar
     9     8    10    1
    10    10    11   ar
    11    11    12    1
    12    11    13   ar
    13    13    14    2
    14    13    15   ar
    15    15    16   ar
    16    16    17    1
    17    16    18   ar
    18    18    19   ar
    19    19    20    1
    20    20    21    1
    21    21    22    1
    22    22    23    1
    23    23    24    1
    24    24    25    1
    25    23    26    1
    26    26    27    1
    27    26    28    1
    28    28    29    1
    29    28    30    1
    30    30    31    1
    31    19    32   ar
    32    32    33   ar
    33    33    34   ar
    34     9     3   ar
    35    34    10   ar
    36    33    15   ar
    37    30    21    1
    38     1    35    1
    39     1    36    1
    40     1    37    1
    41     5    38    1
    42     6    39    1
    43     7    40    1
    44     9    41    1
    45    12    42    1
    46    17    43    1
    47    18    44    1
    48    21    45    1
    49    23    46    1
    50    24    47    1
    51    24    48    1
    52    25    49    1
    53    26    50    1
    54    27    51    1
    55    28    52    1
    56    29    53    1
    57    30    54    1
    58    31    55    1
    59    32    56    1
