@<TRIPOS>MOLECULE
Cyanidin 3-O-(6''-succinyl-glucoside)
 64 67 0 0 0
SMALL
GASTEIGER

@<TRIPOS>ATOM
      1 C           2.1025   -0.7221   -0.0999 C.3     1  UNL1        0.1250
      2 C           2.0736   -2.2323    0.1583 C.3     1  UNL1        0.1212
      3 O           3.4021   -2.7443    0.2079 O.3     1  UNL1       -0.4619
      4 C           3.6833   -4.0885    0.4650 C.2     1  UNL1        0.3077
      5 O           2.7516   -4.9147    0.6664 O.2     1  UNL1       -0.2508
      6 C           5.1073   -4.5361    0.5515 C.3     1  UNL1        0.0550
      7 C           5.6750   -4.2371    1.9398 C.3     1  UNL1        0.0548
      8 C           7.1013   -4.6787    2.0278 C.2     1  UNL1        0.3052
      9 O           7.4005   -5.9834    2.4071 O.3     1  UNL1       -0.4806
     10 O           8.0290   -3.8831    1.7207 O.2     1  UNL1       -0.2510
     11 O           0.7658   -0.2922   -0.3027 O.3     1  UNL1       -0.3302
     12 C           0.7066    1.1145   -0.4376 C.3     1  UNL1        0.2313
     13 O          -0.5529    1.5008   -0.9971 O.3     1  UNL1       -0.4515
     14 C          -1.8377    1.1165   -0.5623 C.ar    1  UNL1        0.2288
     15 C          -2.0479    0.2794    0.5482 C.ar    1  UNL1        0.0093
     16 C          -3.3518   -0.0306    0.9671 C.ar    1  UNL1        0.1241
     17 C          -3.6365   -0.8629    2.0821 C.ar    1  UNL1        0.1366
     18 O          -2.6455   -1.4704    2.8593 O.3     1  UNL1       -0.5057
     19 C          -4.9694   -1.1031    2.4381 C.ar    1  UNL1        0.0225
     20 C          -6.0198   -0.5397    1.7109 C.ar    1  UNL1        0.1293
     21 O          -7.3349   -0.7987    2.0908 O.3     1  UNL1       -0.5063
     22 C          -5.7443    0.2766    0.6102 C.ar    1  UNL1        0.0847
     23 C          -4.4227    0.5328    0.2357 C.ar    1  UNL1        0.3708
     24 O          -4.1888    1.3094   -0.8150 O.2     1  UNL1       -0.1997
     25 C          -2.9671    1.6077   -1.2466 C.ar    1  UNL1        0.4046
     26 C          -2.8441    2.4753   -2.4399 C.ar    1  UNL1        0.0865
     27 C          -1.9335    2.1785   -3.4689 C.ar    1  UNL1       -0.0418
     28 C          -1.8497    2.9995   -4.5962 C.ar    1  UNL1       -0.0157
     29 C          -2.6802    4.1174   -4.7207 C.ar    1  UNL1        0.1583
     30 O          -2.5723    4.9193   -5.8564 O.3     1  UNL1       -0.5033
     31 C          -3.6089    4.4118   -3.7083 C.ar    1  UNL1        0.1591
     32 O          -4.4453    5.5205   -3.8289 O.3     1  UNL1       -0.5033
     33 C          -3.6918    3.5863   -2.5774 C.ar    1  UNL1       -0.0003
     34 C           0.9426    1.8108    0.9247 C.3     1  UNL1        0.1454
     35 O           1.4482    3.1110    0.7431 O.3     1  UNL1       -0.3829
     36 C           1.8509    0.9663    1.8567 C.3     1  UNL1        0.1152
     37 O           1.0344    0.1798    2.6896 O.3     1  UNL1       -0.3864
     38 C           2.8154    0.0398    1.0740 C.3     1  UNL1        0.1130
     39 O           3.9353    0.7588    0.6160 O.3     1  UNL1       -0.3864
     40 H           2.6703   -0.5816   -1.0489 H       1  UNL1        0.0658
     41 H           1.5185   -2.7360   -0.6634 H       1  UNL1        0.0724
     42 H           1.5511   -2.4393    1.1185 H       1  UNL1        0.0724
     43 H           5.7003   -4.0006   -0.2217 H       1  UNL1        0.0383
     44 H           5.1689   -5.6272    0.3436 H       1  UNL1        0.0383
     45 H           5.0815   -4.7725    2.7127 H       1  UNL1        0.0383
     46 H           5.6124   -3.1460    2.1480 H       1  UNL1        0.0383
     47 H           8.3605   -6.3029    2.4560 H       1  UNL1        0.2951
     48 H           1.4789    1.4569   -1.1647 H       1  UNL1        0.1084
     49 H          -1.2012   -0.1021    1.0848 H       1  UNL1        0.0667
     50 H          -1.6536   -1.3897    2.6901 H       1  UNL1        0.2922
     51 H          -5.1903   -1.7363    3.2886 H       1  UNL1        0.0691
     52 H          -8.1199   -0.4057    1.5845 H       1  UNL1        0.2921
     53 H          -6.5576    0.7135    0.0438 H       1  UNL1        0.0749
     54 H          -1.3029    1.3002   -3.4142 H       1  UNL1        0.0628
     55 H          -1.1423    2.7615   -5.3805 H       1  UNL1        0.0655
     56 H          -3.1519    5.7386   -5.9935 H       1  UNL1        0.2923
     57 H          -5.1236    5.7543   -3.1133 H       1  UNL1        0.2923
     58 H          -4.4096    3.8192   -1.7999 H       1  UNL1        0.0664
     59 H          -0.0344    1.9369    1.4374 H       1  UNL1        0.0683
     60 H           2.3550    3.0387    0.3514 H       1  UNL1        0.2102
     61 H           2.4500    1.6595    2.4943 H       1  UNL1        0.0648
     62 H           1.5818   -0.0769    3.4774 H       1  UNL1        0.2100
     63 H           3.2150   -0.6950    1.8078 H       1  UNL1        0.0647
     64 H           3.6631    1.2939   -0.1717 H       1  UNL1        0.2100
@<TRIPOS>UNITY_ATOM_ATTR
24 1
charge 1
@<TRIPOS>BOND
     1     1     2    1
     2     2     3    1
     3     3     4    1
     4     4     5    2
     5     4     6    1
     6     6     7    1
     7     7     8    1
     8     8     9    1
     9     8    10    2
    10     1    11    1
    11    11    12    1
    12    12    13    1
    13    13    14    1
    14    14    15   ar
    15    15    16   ar
    16    16    17   ar
    17    17    18    1
    18    17    19   ar
    19    19    20   ar
    20    20    21    1
    21    20    22   ar
    22    22    23   ar
    23    23    24   ar
    24    24    25   ar
    25    25    26    1
    26    26    27   ar
    27    27    28   ar
    28    28    29   ar
    29    29    30    1
    30    29    31   ar
    31    31    32    1
    32    31    33   ar
    33    12    34    1
    34    34    35    1
    35    34    36    1
    36    36    37    1
    37    36    38    1
    38    38    39    1
    39    38     1    1
    40    25    14   ar
    41    33    26   ar
    42    23    16   ar
    43     1    40    1
    44     2    41    1
    45     2    42    1
    46     6    43    1
    47     6    44    1
    48     7    45    1
    49     7    46    1
    50     9    47    1
    51    12    48    1
    52    15    49    1
    53    18    50    1
    54    19    51    1
    55    21    52    1
    56    22    53    1
    57    27    54    1
    58    28    55    1
    59    30    56    1
    60    32    57    1
    61    33    58    1
    62    34    59    1
    63    35    60    1
    64    36    61    1
    65    37    62    1
    66    38    63    1
    67    39    64    1
