@<TRIPOS>MOLECULE
Quercetin 3,4'-O-diglucoside
 74 78 0 0 0
SMALL
GASTEIGER

@<TRIPOS>ATOM
      1 O          -5.3066   -1.9194   -2.5688 O.3     1  UNL1       -0.3924
      2 C          -5.6669   -0.7725   -1.8467 C.3     1  UNL1        0.0731
      3 C          -5.8109   -1.0994   -0.3519 C.3     1  UNL1        0.1140
      4 O          -4.6075   -1.7353    0.0772 O.3     1  UNL1       -0.3313
      5 C          -4.2079   -1.4545    1.4141 C.3     1  UNL1        0.2310
      6 O          -3.4152   -0.2663    1.4552 O.3     1  UNL1       -0.4572
      7 C          -2.2588    0.0015    0.7010 C.ar    1  UNL1        0.1652
      8 C          -1.5371   -0.9774   -0.0244 C.ar    1  UNL1        0.1592
      9 O          -1.9199   -2.3168   -0.0132 O.3     1  UNL1       -0.5033
     10 C          -0.4038   -0.6009   -0.7608 C.ar    1  UNL1       -0.0057
     11 C           0.0486    0.7287   -0.7572 C.ar    1  UNL1        0.0247
     12 C          -0.6749    1.6915   -0.0429 C.ar    1  UNL1       -0.0473
     13 C          -1.8099    1.3272    0.6827 C.ar    1  UNL1       -0.0155
     14 C           1.2580    1.1331   -1.5096 C.ar    1  UNL1        0.1810
     15 C           2.4316    0.3496   -1.5272 C.ar    1  UNL1        0.2138
     16 O           2.5456   -0.8225   -0.7720 O.3     1  UNL1       -0.4532
     17 C           2.6406   -0.8066    0.6515 C.3     1  UNL1        0.2311
     18 O           3.9193   -0.2992    1.0068 O.3     1  UNL1       -0.3313
     19 C           4.1859   -0.5255    2.3766 C.3     1  UNL1        0.1140
     20 C           5.3612    0.3561    2.8089 C.3     1  UNL1        0.0731
     21 O           5.0187    1.7057    2.6560 O.3     1  UNL1       -0.3924
     22 C           4.5002   -2.0241    2.6103 C.3     1  UNL1        0.1120
     23 O           4.2017   -2.3465    3.9452 O.3     1  UNL1       -0.3865
     24 C           3.6815   -2.9281    1.6463 C.3     1  UNL1        0.1152
     25 O           4.4542   -3.3174    0.5353 O.3     1  UNL1       -0.3864
     26 C           2.3749   -2.2445    1.1852 C.3     1  UNL1        0.1454
     27 O           1.4730   -2.1764    2.2619 O.3     1  UNL1       -0.3829
     28 C           3.5114    0.7635   -2.3137 C.ar    1  UNL1        0.2382
     29 O           4.5515    0.0511   -2.3524 O.2     1  UNL1       -0.2830
     30 C           3.4282    1.9726   -3.0332 C.ar    1  UNL1        0.1092
     31 C           4.4818    2.4683   -3.8379 C.ar    1  UNL1        0.1348
     32 O           5.6778    1.7615   -3.9703 O.3     1  UNL1       -0.5058
     33 C           4.3262    3.6878   -4.5134 C.ar    1  UNL1        0.0223
     34 C           3.1418    4.4195   -4.3995 C.ar    1  UNL1        0.1239
     35 O           3.0135    5.6284   -5.0797 O.3     1  UNL1       -0.5065
     36 C           2.0968    3.9340   -3.6065 C.ar    1  UNL1        0.0231
     37 C           2.2313    2.7199   -2.9270 C.ar    1  UNL1        0.1465
     38 O           1.2203    2.2764   -2.1880 O.2     1  UNL1       -0.4507
     39 C          -5.3950   -1.3206    2.3834 C.3     1  UNL1        0.1454
     40 O          -6.0949   -2.5389    2.4107 O.3     1  UNL1       -0.3829
     41 C          -6.3396   -0.1695    1.9515 C.3     1  UNL1        0.1152
     42 O          -6.0737    0.9844    2.7078 O.3     1  UNL1       -0.3864
     43 C          -6.1880    0.1715    0.4553 C.3     1  UNL1        0.1120
     44 O          -7.4030    0.7061   -0.0114 O.3     1  UNL1       -0.3865
     45 H          -6.1226   -2.4812   -2.6354 H       1  UNL1        0.2095
     46 H          -4.8712   -0.0086   -1.9819 H       1  UNL1        0.0584
     47 H          -6.6153   -0.3552   -2.2544 H       1  UNL1        0.0584
     48 H          -6.6420   -1.8326   -0.2486 H       1  UNL1        0.0647
     49 H          -3.5908   -2.3016    1.7820 H       1  UNL1        0.1084
     50 H          -1.4040   -3.0247   -0.5227 H       1  UNL1        0.2923
     51 H           0.1217   -1.3512   -1.3376 H       1  UNL1        0.0662
     52 H          -0.3513    2.7253   -0.0325 H       1  UNL1        0.0626
     53 H          -2.3520    2.0852    1.2342 H       1  UNL1        0.0655
     54 H           1.8623   -0.1193    1.0530 H       1  UNL1        0.1084
     55 H           3.3085   -0.2241    2.9996 H       1  UNL1        0.0647
     56 H           6.2542    0.1249    2.1850 H       1  UNL1        0.0584
     57 H           5.6045    0.1539    3.8764 H       1  UNL1        0.0584
     58 H           5.8128    2.2257    2.9455 H       1  UNL1        0.2095
     59 H           5.5862   -2.2062    2.4242 H       1  UNL1        0.0647
     60 H           4.6863   -3.1877    4.1541 H       1  UNL1        0.2100
     61 H           3.4083   -3.8656    2.1789 H       1  UNL1        0.0648
     62 H           4.7678   -2.4982    0.0724 H       1  UNL1        0.2100
     63 H           1.9167   -2.8575    0.3722 H       1  UNL1        0.0683
     64 H           1.0832   -3.0830    2.3723 H       1  UNL1        0.2102
     65 H           6.4397    2.1057   -4.5429 H       1  UNL1        0.2922
     66 H           5.1301    4.0705   -5.1297 H       1  UNL1        0.0691
     67 H           2.1679    6.1836   -5.0187 H       1  UNL1        0.2921
     68 H           1.1770    4.4993   -3.5191 H       1  UNL1        0.0691
     69 H          -4.9842   -1.1155    3.4007 H       1  UNL1        0.0683
     70 H          -6.6437   -2.5362    3.2383 H       1  UNL1        0.2102
     71 H          -7.3954   -0.4856    2.1328 H       1  UNL1        0.0648
     72 H          -6.4676    0.8364    3.6074 H       1  UNL1        0.2100
     73 H          -5.3681    0.9217    0.3373 H       1  UNL1        0.0647
     74 H          -7.1813    1.4260   -0.6581 H       1  UNL1        0.2100
@<TRIPOS>BOND
     1     1     2    1
     2     2     3    1
     3     3     4    1
     4     4     5    1
     5     5     6    1
     6     6     7    1
     7     7     8   ar
     8     8     9    1
     9     8    10   ar
    10    10    11   ar
    11    11    12   ar
    12    12    13   ar
    13    11    14    1
    14    14    15   ar
    15    15    16    1
    16    16    17    1
    17    17    18    1
    18    18    19    1
    19    19    20    1
    20    20    21    1
    21    19    22    1
    22    22    23    1
    23    22    24    1
    24    24    25    1
    25    24    26    1
    26    26    27    1
    27    15    28   ar
    28    28    29    2
    29    28    30   ar
    30    30    31   ar
    31    31    32    1
    32    31    33   ar
    33    33    34   ar
    34    34    35    1
    35    34    36   ar
    36    36    37   ar
    37    37    38   ar
    38     5    39    1
    39    39    40    1
    40    39    41    1
    41    41    42    1
    42    41    43    1
    43    43    44    1
    44    43     3    1
    45    13     7   ar
    46    38    14   ar
    47    26    17    1
    48    37    30   ar
    49     1    45    1
    50     2    46    1
    51     2    47    1
    52     3    48    1
    53     5    49    1
    54     9    50    1
    55    10    51    1
    56    12    52    1
    57    13    53    1
    58    17    54    1
    59    19    55    1
    60    20    56    1
    61    20    57    1
    62    21    58    1
    63    22    59    1
    64    23    60    1
    65    24    61    1
    66    25    62    1
    67    26    63    1
    68    27    64    1
    69    32    65    1
    70    33    66    1
    71    35    67    1
    72    36    68    1
    73    39    69    1
    74    40    70    1
    75    41    71    1
    76    42    72    1
    77    43    73    1
    78    44    74    1
