@<TRIPOS>MOLECULE
Myricetin 3-O-rutinoside
 74 78 0 0 0
SMALL
GASTEIGER

@<TRIPOS>ATOM
      1 C           3.2804    0.9793   -1.7917 C.3     1  UNL1       -0.0361
      2 C           3.6086   -0.5057   -1.6236 C.3     1  UNL1        0.0873
      3 O           2.4486   -1.2674   -1.8949 O.3     1  UNL1       -0.3431
      4 C           2.5738   -2.5943   -1.3866 C.3     1  UNL1        0.1879
      5 O           2.3214   -2.6212    0.0095 O.3     1  UNL1       -0.3461
      6 C           0.9623   -2.3306    0.2671 C.3     1  UNL1        0.0796
      7 C           0.7306   -2.2088    1.7814 C.3     1  UNL1        0.1144
      8 O          -0.6568   -2.0065    2.0467 O.3     1  UNL1       -0.3313
      9 C          -0.9883   -0.6328    2.1206 C.3     1  UNL1        0.2311
     10 O          -2.4101   -0.5044    2.1115 O.3     1  UNL1       -0.4532
     11 C          -3.0615    0.6607    1.6841 C.ar    1  UNL1        0.2138
     12 C          -2.9578    1.1283    0.3581 C.ar    1  UNL1        0.1812
     13 O          -3.4987    2.2955    0.0305 O.2     1  UNL1       -0.4507
     14 C          -4.2009    3.0391    0.8773 C.ar    1  UNL1        0.1465
     15 C          -4.4422    2.5997    2.2055 C.ar    1  UNL1        0.1092
     16 C          -5.2510    3.4129    3.0547 C.ar    1  UNL1        0.1348
     17 O          -5.6525    3.0398    4.3407 O.3     1  UNL1       -0.5058
     18 C          -5.7077    4.6532    2.5920 C.ar    1  UNL1        0.0223
     19 C          -5.4382    5.0798    1.2891 C.ar    1  UNL1        0.1239
     20 O          -5.9092    6.3087    0.8321 O.3     1  UNL1       -0.5065
     21 C          -4.6999    4.2660    0.4335 C.ar    1  UNL1        0.0231
     22 C          -3.8177    1.3942    2.6049 C.ar    1  UNL1        0.2382
     23 O          -3.8803    0.9788    3.7915 O.2     1  UNL1       -0.2830
     24 C          -2.2610    0.3630   -0.6996 C.ar    1  UNL1        0.0282
     25 C          -2.4711   -1.0173   -0.8535 C.ar    1  UNL1       -0.0055
     26 C          -1.7966   -1.7312   -1.8532 C.ar    1  UNL1        0.1626
     27 O          -1.9971   -3.1031   -1.9952 O.3     1  UNL1       -0.5032
     28 C          -0.9104   -1.0682   -2.7118 C.ar    1  UNL1        0.2006
     29 O          -0.2345   -1.7984   -3.6899 O.3     1  UNL1       -0.5009
     30 C          -0.7098    0.3159   -2.5766 C.ar    1  UNL1        0.1626
     31 O           0.1655    0.9807   -3.4335 O.3     1  UNL1       -0.5032
     32 C          -1.3911    1.0258   -1.5779 C.ar    1  UNL1       -0.0055
     33 C          -0.4116   -0.0221    3.4208 C.3     1  UNL1        0.1454
     34 O          -0.3637    1.3819    3.3343 O.3     1  UNL1       -0.3829
     35 C           0.9756   -0.6409    3.7526 C.3     1  UNL1        0.1152
     36 O           1.7953    0.2371    4.4864 O.3     1  UNL1       -0.3864
     37 C           1.6757   -1.1786    2.4851 C.3     1  UNL1        0.1120
     38 O           1.9892   -0.1171    1.6140 O.3     1  UNL1       -0.3865
     39 C           3.9598   -3.2382   -1.6971 C.3     1  UNL1        0.1341
     40 O           4.7827   -3.2014   -0.5565 O.3     1  UNL1       -0.3841
     41 C           4.6458   -2.4927   -2.8570 C.3     1  UNL1        0.1140
     42 O           3.8827   -2.6795   -4.0247 O.3     1  UNL1       -0.3864
     43 C           4.7827   -0.9829   -2.5273 C.3     1  UNL1        0.1095
     44 O           4.8493   -0.2473   -3.7259 O.3     1  UNL1       -0.3866
     45 H           2.4799    1.2672   -1.0770 H       1  UNL1        0.0255
     46 H           4.1790    1.5975   -1.5822 H       1  UNL1        0.0255
     47 H           2.9199    1.1886   -2.8209 H       1  UNL1        0.0255
     48 H           3.9090   -0.6292   -0.5558 H       1  UNL1        0.0621
     49 H           1.8195   -3.2192   -1.9206 H       1  UNL1        0.0937
     50 H           0.3183   -3.1530   -0.1182 H       1  UNL1        0.0587
     51 H           0.6531   -1.3805   -0.2203 H       1  UNL1        0.0587
     52 H           0.9802   -3.2031    2.2138 H       1  UNL1        0.0647
     53 H          -0.5724   -0.0968    1.2405 H       1  UNL1        0.1084
     54 H          -5.6461    2.0947    4.6933 H       1  UNL1        0.2922
     55 H          -6.3041    5.2780    3.2455 H       1  UNL1        0.0691
     56 H          -6.4516    6.9233    1.4279 H       1  UNL1        0.2921
     57 H          -4.5032    4.5931   -0.5803 H       1  UNL1        0.0691
     58 H          -3.1615   -1.5389   -0.2025 H       1  UNL1        0.0662
     59 H          -2.6243   -3.6134   -1.3845 H       1  UNL1        0.2923
     60 H           0.4274   -1.3665   -4.3235 H       1  UNL1        0.2924
     61 H           0.3318    1.9772   -3.3543 H       1  UNL1        0.2923
     62 H          -1.2260    2.0916   -1.4742 H       1  UNL1        0.0662
     63 H          -1.0974   -0.2770    4.2588 H       1  UNL1        0.0683
     64 H           0.2067    1.6207    2.5582 H       1  UNL1        0.2102
     65 H           0.7927   -1.5228    4.4070 H       1  UNL1        0.0648
     66 H           2.0697    0.9802    3.8905 H       1  UNL1        0.2100
     67 H           2.6091   -1.7127    2.7876 H       1  UNL1        0.0647
     68 H           2.9256    0.1535    1.8018 H       1  UNL1        0.2100
     69 H           3.7979   -4.3022   -1.9929 H       1  UNL1        0.0671
     70 H           5.5176   -3.8514   -0.7094 H       1  UNL1        0.2101
     71 H           5.6637   -2.9273   -3.0034 H       1  UNL1        0.0648
     72 H           4.5046   -2.6052   -4.7952 H       1  UNL1        0.2100
     73 H           5.7306   -0.8492   -1.9516 H       1  UNL1        0.0646
     74 H           5.4405    0.5331   -3.5603 H       1  UNL1        0.2100
@<TRIPOS>BOND
     1     1     2    1
     2     2     3    1
     3     3     4    1
     4     4     5    1
     5     5     6    1
     6     6     7    1
     7     7     8    1
     8     8     9    1
     9     9    10    1
    10    10    11    1
    11    11    12   ar
    12    12    13   ar
    13    13    14   ar
    14    14    15   ar
    15    15    16   ar
    16    16    17    1
    17    16    18   ar
    18    18    19   ar
    19    19    20    1
    20    19    21   ar
    21    15    22   ar
    22    22    23    2
    23    12    24    1
    24    24    25   ar
    25    25    26   ar
    26    26    27    1
    27    26    28   ar
    28    28    29    1
    29    28    30   ar
    30    30    31    1
    31    30    32   ar
    32     9    33    1
    33    33    34    1
    34    33    35    1
    35    35    36    1
    36    35    37    1
    37    37    38    1
    38     4    39    1
    39    39    40    1
    40    39    41    1
    41    41    42    1
    42    41    43    1
    43    43    44    1
    44    43     2    1
    45    37     7    1
    46    22    11   ar
    47    32    24   ar
    48    21    14   ar
    49     1    45    1
    50     1    46    1
    51     1    47    1
    52     2    48    1
    53     4    49    1
    54     6    50    1
    55     6    51    1
    56     7    52    1
    57     9    53    1
    58    17    54    1
    59    18    55    1
    60    20    56    1
    61    21    57    1
    62    25    58    1
    63    27    59    1
    64    29    60    1
    65    31    61    1
    66    32    62    1
    67    33    63    1
    68    34    64    1
    69    35    65    1
    70    36    66    1
    71    37    67    1
    72    38    68    1
    73    39    69    1
    74    40    70    1
    75    41    71    1
    76    42    72    1
    77    43    73    1
    78    44    74    1
