@<TRIPOS>MOLECULE
Myricetin
 33 35 0 0 0
SMALL
GASTEIGER

@<TRIPOS>ATOM
      1 O           4.5937    2.9370    1.3258 O.3     1  UNL1       -0.5065
      2 C           3.9464    1.8216    0.7985 C.ar    1  UNL1        0.1239
      3 C           4.6791    0.7623    0.2571 C.ar    1  UNL1        0.0223
      4 C           4.0362   -0.3556   -0.2888 C.ar    1  UNL1        0.1348
      5 O           4.8557   -1.3162   -0.8888 O.3     1  UNL1       -0.5058
      6 C           2.6130   -0.4458   -0.2328 C.ar    1  UNL1        0.1092
      7 C           1.8860    0.6512    0.2984 C.ar    1  UNL1        0.1465
      8 O           0.5587    0.6385    0.3276 O.2     1  UNL1       -0.4507
      9 C          -0.1726   -0.3820   -0.1042 C.ar    1  UNL1        0.1808
     10 C           0.4651   -1.5503   -0.5670 C.ar    1  UNL1        0.2082
     11 O          -0.2502   -2.6980   -0.9219 O.3     1  UNL1       -0.5007
     12 C           1.8630   -1.5777   -0.6323 C.ar    1  UNL1        0.2379
     13 O           2.4224   -2.6408   -1.0086 O.2     1  UNL1       -0.2830
     14 C          -1.6421   -0.2394   -0.0700 C.ar    1  UNL1        0.0282
     15 C          -2.2681    0.2188    1.0981 C.ar    1  UNL1       -0.0055
     16 C          -3.6580    0.3988    1.1367 C.ar    1  UNL1        0.1626
     17 O          -4.2737    0.8397    2.3072 O.3     1  UNL1       -0.5032
     18 C          -4.4295    0.1356   -0.0083 C.ar    1  UNL1        0.2006
     19 O          -5.8144    0.3041    0.0062 O.3     1  UNL1       -0.5009
     20 C          -3.8053   -0.2980   -1.1854 C.ar    1  UNL1        0.1626
     21 O          -4.5730   -0.5463   -2.3220 O.3     1  UNL1       -0.5032
     22 C          -2.4156   -0.4762   -1.2173 C.ar    1  UNL1       -0.0055
     23 C           2.5547    1.7688    0.8037 C.ar    1  UNL1        0.0231
     24 H           5.6045    3.0082    1.3349 H       1  UNL1        0.2921
     25 H           5.7605    0.8192    0.2319 H       1  UNL1        0.0691
     26 H           4.5398   -2.0078   -1.5518 H       1  UNL1        0.2922
     27 H          -1.2459   -2.7969   -0.7729 H       1  UNL1        0.2924
     28 H          -1.6773    0.4271    1.9821 H       1  UNL1        0.0662
     29 H          -3.7404    1.0370    3.1459 H       1  UNL1        0.2923
     30 H          -6.3107    0.6163    0.8322 H       1  UNL1        0.2924
     31 H          -4.1516   -0.8601   -3.1885 H       1  UNL1        0.2923
     32 H          -1.9387   -0.7901   -2.1380 H       1  UNL1        0.0662
     33 H           1.9884    2.5967    1.2127 H       1  UNL1        0.0691
@<TRIPOS>BOND
     1     1     2    1
     2     2     3   ar
     3     3     4   ar
     4     4     5    1
     5     4     6   ar
     6     6     7   ar
     7     7     8   ar
     8     8     9   ar
     9     9    10   ar
    10    10    11    1
    11    10    12   ar
    12    12    13    2
    13     9    14    1
    14    14    15   ar
    15    15    16   ar
    16    16    17    1
    17    16    18   ar
    18    18    19    1
    19    18    20   ar
    20    20    21    1
    21    20    22   ar
    22     7    23   ar
    23    23     2   ar
    24    12     6   ar
    25    22    14   ar
    26     1    24    1
    27     3    25    1
    28     5    26    1
    29    11    27    1
    30    15    28    1
    31    17    29    1
    32    19    30    1
    33    21    31    1
    34    22    32    1
    35    23    33    1
