@<TRIPOS>MOLECULE
Morin
 32 34 0 0 0
SMALL
GASTEIGER

@<TRIPOS>ATOM
      1 O           6.0556    0.6393    0.3178 O.3     1  UNL1       -0.5066
      2 C           4.6895    0.3883    0.2100 C.ar    1  UNL1        0.1204
      3 C           3.9148    1.1521   -0.6671 C.ar    1  UNL1        0.0220
      4 C           2.5408    0.9154   -0.7970 C.ar    1  UNL1        0.1311
      5 O           1.8224    1.6852   -1.7146 O.3     1  UNL1       -0.5059
      6 C           1.9277   -0.0979   -0.0233 C.ar    1  UNL1        0.0626
      7 C           2.7160   -0.8590    0.8578 C.ar    1  UNL1       -0.0440
      8 C           4.0873   -0.6200    0.9704 C.ar    1  UNL1       -0.0193
      9 C           0.4693   -0.3334   -0.0790 C.ar    1  UNL1        0.1841
     10 C          -0.0558   -1.6125   -0.3320 C.ar    1  UNL1        0.2083
     11 O           0.8039   -2.6880   -0.5703 O.3     1  UNL1       -0.5007
     12 C          -1.4486   -1.7811   -0.3560 C.ar    1  UNL1        0.2379
     13 O          -1.9314   -2.9247   -0.5789 O.2     1  UNL1       -0.2830
     14 C          -2.2881   -0.6696   -0.1347 C.ar    1  UNL1        0.1092
     15 C          -3.7014   -0.7527   -0.1449 C.ar    1  UNL1        0.1348
     16 O          -4.3478   -1.9675   -0.3767 O.3     1  UNL1       -0.5058
     17 C          -4.4677    0.4005    0.0806 C.ar    1  UNL1        0.0223
     18 C          -3.8510    1.6315    0.3152 C.ar    1  UNL1        0.1239
     19 O          -4.6353    2.7615    0.5358 O.3     1  UNL1       -0.5065
     20 C          -2.4551    1.7201    0.3270 C.ar    1  UNL1        0.0231
     21 C          -1.6735    0.5827    0.1050 C.ar    1  UNL1        0.1465
     22 O          -0.3501    0.6937    0.1235 O.2     1  UNL1       -0.4506
     23 H           6.6447    0.1031    0.9443 H       1  UNL1        0.2921
     24 H           4.3842    1.9280   -1.2591 H       1  UNL1        0.0691
     25 H           0.8464    1.5237   -1.9264 H       1  UNL1        0.2922
     26 H           2.2647   -1.6267    1.4746 H       1  UNL1        0.0627
     27 H           4.6791   -1.2133    1.6558 H       1  UNL1        0.0654
     28 H           0.4622   -3.6224   -0.7604 H       1  UNL1        0.2924
     29 H          -5.3585   -2.0402   -0.3867 H       1  UNL1        0.2922
     30 H          -5.5489    0.3406    0.0734 H       1  UNL1        0.0691
     31 H          -4.2198    3.6694    0.7090 H       1  UNL1        0.2921
     32 H          -1.9755    2.6740    0.5091 H       1  UNL1        0.0691
@<TRIPOS>BOND
     1     1     2    1
     2     2     3   ar
     3     3     4   ar
     4     4     5    1
     5     4     6   ar
     6     6     7   ar
     7     7     8   ar
     8     6     9    1
     9     9    10   ar
    10    10    11    1
    11    10    12   ar
    12    12    13    2
    13    12    14   ar
    14    14    15   ar
    15    15    16    1
    16    15    17   ar
    17    17    18   ar
    18    18    19    1
    19    18    20   ar
    20    20    21   ar
    21    21    22   ar
    22     8     2   ar
    23    22     9   ar
    24    21    14   ar
    25     1    23    1
    26     3    24    1
    27     5    25    1
    28     7    26    1
    29     8    27    1
    30    11    28    1
    31    16    29    1
    32    17    30    1
    33    19    31    1
    34    20    32    1
