@<TRIPOS>MOLECULE
Kaempferide
 33 35 0 0 0
SMALL
GASTEIGER

@<TRIPOS>ATOM
      1 C           6.3177    0.0728   -1.3266 C.3     1  UNL1        0.0788
      2 O           5.3470   -0.8551   -0.8531 O.3     1  UNL1       -0.4951
      3 C           4.0077   -0.5333   -0.5873 C.ar    1  UNL1        0.1201
      4 C           3.1595   -1.5454   -0.1255 C.ar    1  UNL1       -0.0193
      5 C           1.8172   -1.2754    0.1551 C.ar    1  UNL1       -0.0476
      6 C           1.3027    0.0205   -0.0078 C.ar    1  UNL1        0.0170
      7 C           2.1487    1.0342   -0.4909 C.ar    1  UNL1       -0.0476
      8 C           3.4911    0.7628   -0.7724 C.ar    1  UNL1       -0.0193
      9 C          -0.1283    0.2778    0.2738 C.ar    1  UNL1        0.1316
     10 C          -0.5658    1.4431    0.9252 C.ar    1  UNL1       -0.0152
     11 O           0.3446    2.3869    1.3938 O.co2   1  UNL1       -0.8689
     12 C          -1.9342    1.6344    1.1414 C.ar    1  UNL1        0.1890
     13 O          -2.3025    2.6591    1.7728 O.2     1  UNL1       -0.2875
     14 C          -2.8609    0.6644    0.6899 C.ar    1  UNL1        0.1049
     15 C          -4.2778    0.7728    0.8220 C.ar    1  UNL1        0.1346
     16 O          -4.9335    1.9181    1.2832 O.3     1  UNL1       -0.5058
     17 C          -5.0902   -0.3059    0.4509 C.ar    1  UNL1        0.0223
     18 C          -4.5408   -1.4637   -0.1056 C.ar    1  UNL1        0.1239
     19 O          -5.3580   -2.5260   -0.4861 O.3     1  UNL1       -0.5065
     20 C          -3.1636   -1.5561   -0.2912 C.ar    1  UNL1        0.0231
     21 C          -2.3239   -0.5111    0.1014 C.ar    1  UNL1        0.1462
     22 O          -1.0152   -0.6443   -0.0830 O.2     1  UNL1       -0.4550
     23 H           6.4451    0.8986   -0.5952 H       1  UNL1        0.0660
     24 H           6.0083    0.4793   -2.3125 H       1  UNL1        0.0660
     25 H           7.2894   -0.4487   -1.4465 H       1  UNL1        0.0660
     26 H           3.5429   -2.5481    0.0154 H       1  UNL1        0.0654
     27 H           1.1820   -2.0772    0.5116 H       1  UNL1        0.0626
     28 H           1.7686    2.0306   -0.6761 H       1  UNL1        0.0626
     29 H           4.1155    1.5649   -1.1413 H       1  UNL1        0.0654
     30 H          -4.5245    2.8393    1.3216 H       1  UNL1        0.2922
     31 H          -6.1639   -0.2290    0.5705 H       1  UNL1        0.0691
     32 H          -6.3638   -2.4900   -0.3672 H       1  UNL1        0.2921
     33 H          -2.7410   -2.4505   -0.7327 H       1  UNL1        0.0691
@<TRIPOS>UNITY_ATOM_ATTR
11 1
charge -1
@<TRIPOS>BOND
     1     1     2    1
     2     2     3    1
     3     3     4   ar
     4     4     5   ar
     5     5     6   ar
     6     6     7   ar
     7     7     8   ar
     8     6     9    1
     9     9    10   ar
    10    10    11    1
    11    10    12   ar
    12    12    13    2
    13    12    14   ar
    14    14    15   ar
    15    15    16    1
    16    15    17   ar
    17    17    18   ar
    18    18    19    1
    19    18    20   ar
    20    20    21   ar
    21    21    22   ar
    22     8     3   ar
    23    22     9   ar
    24    21    14   ar
    25     1    23    1
    26     1    24    1
    27     1    25    1
    28     4    26    1
    29     5    27    1
    30     7    28    1
    31     8    29    1
    32    16    30    1
    33    17    31    1
    34    19    32    1
    35    20    33    1
