@<TRIPOS>MOLECULE
Myricetin 3-O-galactoside
 54 57 0 0 0
SMALL
GASTEIGER

@<TRIPOS>ATOM
      1 O           3.5084   -3.1689   -0.2676 O.3     1  UNL1       -0.3924
      2 C           2.4809   -2.3218    0.1674 C.3     1  UNL1        0.0731
      3 C           2.5542   -0.9638   -0.5547 C.3     1  UNL1        0.1140
      4 O           1.3255   -0.2709   -0.3412 O.3     1  UNL1       -0.3313
      5 C           1.4189    0.9202    0.4313 C.3     1  UNL1        0.2311
      6 O           0.1171    1.2768    0.8898 O.3     1  UNL1       -0.4532
      7 C          -0.9584    1.4489    0.0142 C.ar    1  UNL1        0.2138
      8 C          -1.7884    0.3661   -0.3387 C.ar    1  UNL1        0.1812
      9 O          -2.7751    0.5507   -1.2113 O.2     1  UNL1       -0.4507
     10 C          -3.0474    1.7269   -1.7660 C.ar    1  UNL1        0.1465
     11 C          -4.1091    1.8239   -2.6701 C.ar    1  UNL1        0.0231
     12 C          -4.4208    3.0475   -3.2652 C.ar    1  UNL1        0.1239
     13 O          -5.4832    3.1230   -4.1632 O.3     1  UNL1       -0.5065
     14 C          -3.6664    4.1852   -2.9560 C.ar    1  UNL1        0.0223
     15 C          -2.5961    4.1088   -2.0525 C.ar    1  UNL1        0.1348
     16 O          -1.8611    5.2596   -1.7646 O.3     1  UNL1       -0.5058
     17 C          -2.2762    2.8701   -1.4470 C.ar    1  UNL1        0.1092
     18 C          -1.2129    2.7096   -0.5359 C.ar    1  UNL1        0.2382
     19 O          -0.4793    3.6823   -0.2098 O.2     1  UNL1       -0.2830
     20 C          -1.5806   -0.9947    0.2093 C.ar    1  UNL1        0.0282
     21 C          -1.7037   -2.1045   -0.6376 C.ar    1  UNL1       -0.0055
     22 C          -1.4869   -3.4025   -0.1619 C.ar    1  UNL1        0.1626
     23 O          -1.6153   -4.4556   -1.0701 O.3     1  UNL1       -0.5032
     24 C          -1.1477   -3.6016    1.1982 C.ar    1  UNL1        0.2006
     25 O          -0.9047   -4.8717    1.7276 O.3     1  UNL1       -0.5009
     26 C          -1.0488   -2.4894    2.0542 C.ar    1  UNL1        0.1626
     27 O          -0.7271   -2.6448    3.4027 O.3     1  UNL1       -0.5032
     28 C          -1.2736   -1.2010    1.5629 C.ar    1  UNL1       -0.0055
     29 C           2.3333    0.7506    1.6568 C.3     1  UNL1        0.1454
     30 O           2.3123    1.9285    2.4214 O.3     1  UNL1       -0.3829
     31 C           3.7812    0.4220    1.2274 C.3     1  UNL1        0.1152
     32 O           4.3342   -0.4914    2.1428 O.3     1  UNL1       -0.3864
     33 C           3.8297   -0.1423   -0.2125 C.3     1  UNL1        0.1120
     34 O           4.9893   -0.9069   -0.4249 O.3     1  UNL1       -0.3865
     35 H           3.4019   -4.0149    0.2403 H       1  UNL1        0.2095
     36 H           2.5382   -2.1864    1.2683 H       1  UNL1        0.0584
     37 H           1.5018   -2.7962   -0.0662 H       1  UNL1        0.0584
     38 H           2.6044   -1.1870   -1.6432 H       1  UNL1        0.0647
     39 H           1.7987    1.7474   -0.2099 H       1  UNL1        0.1084
     40 H          -4.6949    0.9451   -2.9103 H       1  UNL1        0.0691
     41 H          -5.7362    3.9953   -4.6128 H       1  UNL1        0.2921
     42 H          -3.9120    5.1323   -3.4200 H       1  UNL1        0.0691
     43 H          -2.0797    6.1524   -2.1913 H       1  UNL1        0.2922
     44 H          -1.9496   -1.9621   -1.6834 H       1  UNL1        0.0662
     45 H          -1.4892   -5.4285   -0.8316 H       1  UNL1        0.2923
     46 H          -0.9384   -5.7261    1.1910 H       1  UNL1        0.2924
     47 H          -0.5515   -3.5526    3.8161 H       1  UNL1        0.2923
     48 H          -1.2182   -0.3644    2.2476 H       1  UNL1        0.0662
     49 H           1.9156   -0.0875    2.2638 H       1  UNL1        0.0683
     50 H           2.6933    1.6983    3.3090 H       1  UNL1        0.2102
     51 H           4.3775    1.3667    1.2363 H       1  UNL1        0.0648
     52 H           5.3171   -0.3510    2.1399 H       1  UNL1        0.2100
     53 H           3.8472    0.7209   -0.9199 H       1  UNL1        0.0647
     54 H           5.7516   -0.2709   -0.4480 H       1  UNL1        0.2100
@<TRIPOS>BOND
     1     1     2    1
     2     2     3    1
     3     3     4    1
     4     4     5    1
     5     5     6    1
     6     6     7    1
     7     7     8   ar
     8     8     9   ar
     9     9    10   ar
    10    10    11   ar
    11    11    12   ar
    12    12    13    1
    13    12    14   ar
    14    14    15   ar
    15    15    16    1
    16    15    17   ar
    17    17    18   ar
    18    18    19    2
    19     8    20    1
    20    20    21   ar
    21    21    22   ar
    22    22    23    1
    23    22    24   ar
    24    24    25    1
    25    24    26   ar
    26    26    27    1
    27    26    28   ar
    28     5    29    1
    29    29    30    1
    30    29    31    1
    31    31    32    1
    32    31    33    1
    33    33    34    1
    34    33     3    1
    35    18     7   ar
    36    28    20   ar
    37    17    10   ar
    38     1    35    1
    39     2    36    1
    40     2    37    1
    41     3    38    1
    42     5    39    1
    43    11    40    1
    44    13    41    1
    45    14    42    1
    46    16    43    1
    47    21    44    1
    48    23    45    1
    49    25    46    1
    50    27    47    1
    51    28    48    1
    52    29    49    1
    53    30    50    1
    54    31    51    1
    55    32    52    1
    56    33    53    1
    57    34    54    1
