@<TRIPOS>MOLECULE
Myricetin 3-O-glucoside
 54 57 0 0 0
SMALL
GASTEIGER

@<TRIPOS>ATOM
      1 O          -5.4379    0.9476    2.2304 O.3     1  UNL1       -0.3924
      2 C          -5.4665    1.5897    0.9830 C.3     1  UNL1        0.0731
      3 C          -4.9965    0.6498   -0.1387 C.3     1  UNL1        0.1140
      4 O          -3.6559    0.2679    0.1205 O.3     1  UNL1       -0.3313
      5 C          -3.1176   -0.4399   -0.9834 C.3     1  UNL1        0.2310
      6 O          -1.7359   -0.6985   -0.7408 O.3     1  UNL1       -0.4570
      7 C          -0.7115    0.2538   -0.5813 C.ar    1  UNL1        0.1695
      8 C           0.5512   -0.2387   -0.2290 C.ar    1  UNL1       -0.0052
      9 C           1.6401    0.6238   -0.0298 C.ar    1  UNL1        0.0282
     10 C           1.4645    1.9986   -0.2256 C.ar    1  UNL1       -0.0055
     11 C           0.2132    2.5137   -0.5824 C.ar    1  UNL1        0.1627
     12 O           0.0547    3.8875   -0.7623 O.3     1  UNL1       -0.5032
     13 C          -0.8829    1.6498   -0.7619 C.ar    1  UNL1        0.2010
     14 O          -2.1210    2.1787   -1.1258 O.3     1  UNL1       -0.5009
     15 C           2.9805    0.1036    0.3240 C.ar    1  UNL1        0.1808
     16 C           3.1604   -0.9012    1.2942 C.ar    1  UNL1        0.2082
     17 O           2.0638   -1.4105    1.9945 O.3     1  UNL1       -0.5007
     18 C           4.4597   -1.3581    1.5644 C.ar    1  UNL1        0.2379
     19 O           4.6321   -2.2653    2.4234 O.2     1  UNL1       -0.2830
     20 C           5.5543   -0.7922    0.8789 C.ar    1  UNL1        0.1092
     21 C           6.8948   -1.1933    1.0954 C.ar    1  UNL1        0.1348
     22 O           7.2047   -2.1979    2.0132 O.3     1  UNL1       -0.5058
     23 C           7.9303   -0.5746    0.3794 C.ar    1  UNL1        0.0223
     24 C           7.6531    0.4347   -0.5454 C.ar    1  UNL1        0.1239
     25 O           8.7000    1.0336   -1.2426 O.3     1  UNL1       -0.5065
     26 C           6.3309    0.8348   -0.7640 C.ar    1  UNL1        0.0231
     27 C           5.2846    0.2294   -0.0618 C.ar    1  UNL1        0.1465
     28 O           4.0378    0.6245   -0.2920 O.2     1  UNL1       -0.4507
     29 C          -3.8443   -1.7843   -1.1495 C.3     1  UNL1        0.1454
     30 O          -3.3171   -2.4633   -2.2598 O.3     1  UNL1       -0.3829
     31 C          -5.3530   -1.5333   -1.3502 C.3     1  UNL1        0.1152
     32 O          -6.0643   -2.7461   -1.3797 O.3     1  UNL1       -0.3864
     33 C          -5.9004   -0.6002   -0.2499 C.3     1  UNL1        0.1120
     34 O          -7.2116   -0.2093   -0.5688 O.3     1  UNL1       -0.3865
     35 H          -4.4937    0.9589    2.5368 H       1  UNL1        0.2095
     36 H          -6.5044    1.9290    0.7800 H       1  UNL1        0.0584
     37 H          -4.8235    2.4996    1.0017 H       1  UNL1        0.0584
     38 H          -5.0565    1.2338   -1.0878 H       1  UNL1        0.0647
     39 H          -3.2103    0.1390   -1.9317 H       1  UNL1        0.1084
     40 H           0.6816   -1.3092   -0.1310 H       1  UNL1        0.0662
     41 H           2.2997    2.6756   -0.0901 H       1  UNL1        0.0662
     42 H           0.8266    4.5327   -0.6405 H       1  UNL1        0.2923
     43 H          -2.2728    3.1710   -1.2602 H       1  UNL1        0.2924
     44 H           2.1586   -2.1267    2.7046 H       1  UNL1        0.2924
     45 H           8.1599   -2.4938    2.1773 H       1  UNL1        0.2922
     46 H           8.9567   -0.8787    0.5425 H       1  UNL1        0.0691
     47 H           8.5334    1.7684   -1.9203 H       1  UNL1        0.2921
     48 H           6.1144    1.6165   -1.4818 H       1  UNL1        0.0691
     49 H          -3.6821   -2.3833   -0.2216 H       1  UNL1        0.0683
     50 H          -3.5617   -3.4196   -2.1537 H       1  UNL1        0.2102
     51 H          -5.4953   -1.0332   -2.3346 H       1  UNL1        0.0648
     52 H          -5.9329   -3.1941   -0.5032 H       1  UNL1        0.2100
     53 H          -5.8865   -1.1377    0.7280 H       1  UNL1        0.0647
     54 H          -7.8058   -0.9628   -0.3146 H       1  UNL1        0.2100
@<TRIPOS>BOND
     1     1     2    1
     2     2     3    1
     3     3     4    1
     4     4     5    1
     5     5     6    1
     6     6     7    1
     7     7     8   ar
     8     8     9   ar
     9     9    10   ar
    10    10    11   ar
    11    11    12    1
    12    11    13   ar
    13    13    14    1
    14     9    15    1
    15    15    16   ar
    16    16    17    1
    17    16    18   ar
    18    18    19    2
    19    18    20   ar
    20    20    21   ar
    21    21    22    1
    22    21    23   ar
    23    23    24   ar
    24    24    25    1
    25    24    26   ar
    26    26    27   ar
    27    27    28   ar
    28     5    29    1
    29    29    30    1
    30    29    31    1
    31    31    32    1
    32    31    33    1
    33    33    34    1
    34    33     3    1
    35    13     7   ar
    36    28    15   ar
    37    27    20   ar
    38     1    35    1
    39     2    36    1
    40     2    37    1
    41     3    38    1
    42     5    39    1
    43     8    40    1
    44    10    41    1
    45    12    42    1
    46    14    43    1
    47    17    44    1
    48    22    45    1
    49    23    46    1
    50    25    47    1
    51    26    48    1
    52    29    49    1
    53    30    50    1
    54    31    51    1
    55    32    52    1
    56    33    53    1
    57    34    54    1
