@<TRIPOS>MOLECULE
Quercetin 3-O-glucosyl-xyloside
 70 74 0 0 0
SMALL
GASTEIGER

@<TRIPOS>ATOM
      1 C          -5.4633   -1.7808   -1.4641 C.3     1  UNL1        0.1131
      2 C          -6.4671   -0.9643   -2.2937 C.3     1  UNL1        0.0730
      3 O          -5.9326   -0.7108   -3.5635 O.3     1  UNL1       -0.3924
      4 O          -4.2389   -1.0774   -1.4063 O.3     1  UNL1       -0.3405
      5 C          -4.0002   -0.7161   -0.0605 C.3     1  UNL1        0.1880
      6 O          -3.6456    0.6521    0.0146 O.3     1  UNL1       -0.3460
      7 C          -2.2865    0.8472   -0.3324 C.3     1  UNL1        0.0796
      8 C          -1.3884    0.8478    0.9169 C.3     1  UNL1        0.1144
      9 O          -0.0409    0.8962    0.4821 O.3     1  UNL1       -0.3313
     10 C           0.8418    0.7305    1.5782 C.3     1  UNL1        0.2311
     11 O           2.1788    0.6406    1.0894 O.3     1  UNL1       -0.4532
     12 C           2.6639   -0.2542    0.1143 C.ar    1  UNL1        0.2138
     13 C           3.9243    0.0056   -0.4565 C.ar    1  UNL1        0.1810
     14 O           4.4518   -0.8483   -1.3246 O.2     1  UNL1       -0.4507
     15 C           3.8296   -1.9404   -1.7464 C.ar    1  UNL1        0.1465
     16 C           4.4889   -2.7794   -2.6483 C.ar    1  UNL1        0.0231
     17 C           3.8757   -3.9418   -3.1098 C.ar    1  UNL1        0.1239
     18 O           4.5596   -4.7763   -3.9913 O.3     1  UNL1       -0.5065
     19 C           2.5789   -4.2539   -2.6940 C.ar    1  UNL1        0.0223
     20 C           1.8795   -3.4110   -1.8216 C.ar    1  UNL1        0.1348
     21 O           0.5501   -3.7503   -1.5535 O.3     1  UNL1       -0.5058
     22 C           2.5260   -2.2557   -1.2889 C.ar    1  UNL1        0.1092
     23 C           1.9717   -1.4188   -0.2912 C.ar    1  UNL1        0.2382
     24 O           0.8970   -1.7350    0.2796 O.2     1  UNL1       -0.2830
     25 C           4.7108    1.2092   -0.1006 C.ar    1  UNL1        0.0247
     26 C           4.1105    2.4791   -0.0247 C.ar    1  UNL1       -0.0057
     27 C           4.8733    3.6094    0.3025 C.ar    1  UNL1        0.1589
     28 O           4.2674    4.8619    0.3886 O.3     1  UNL1       -0.5033
     29 C           6.2518    3.4765    0.5392 C.ar    1  UNL1        0.1583
     30 O           7.0370    4.5806    0.8692 O.3     1  UNL1       -0.5033
     31 C           6.8546    2.2187    0.4399 C.ar    1  UNL1       -0.0159
     32 C           6.0926    1.0934    0.1155 C.ar    1  UNL1       -0.0473
     33 C           0.7441    1.9455    2.5133 C.3     1  UNL1        0.1454
     34 O           1.6214    1.7698    3.5958 O.3     1  UNL1       -0.3829
     35 C          -0.7002    2.0911    3.0227 C.3     1  UNL1        0.1152
     36 O          -0.8261    3.3025    3.7218 O.3     1  UNL1       -0.3864
     37 C          -1.6895    2.0610    1.8375 C.3     1  UNL1        0.1120
     38 O          -3.0154    2.0351    2.3067 O.3     1  UNL1       -0.3865
     39 C          -5.2697   -0.9514    0.7415 C.3     1  UNL1        0.1341
     40 O          -4.9677   -1.3455    2.0543 O.3     1  UNL1       -0.3841
     41 C          -5.9321   -2.0557   -0.0306 C.3     1  UNL1        0.1141
     42 O          -7.3274   -2.0088    0.1218 O.3     1  UNL1       -0.3864
     43 H          -5.2940   -2.7515   -1.9800 H       1  UNL1        0.0647
     44 H          -6.6825   -0.0002   -1.7801 H       1  UNL1        0.0584
     45 H          -7.4151   -1.5364   -2.4054 H       1  UNL1        0.0584
     46 H          -6.6130   -0.1734   -4.0466 H       1  UNL1        0.2095
     47 H          -3.1980   -1.3794    0.3445 H       1  UNL1        0.0937
     48 H          -1.9143    0.0930   -1.0667 H       1  UNL1        0.0587
     49 H          -2.1976    1.8305   -0.8418 H       1  UNL1        0.0587
     50 H          -1.5768   -0.1009    1.4712 H       1  UNL1        0.0647
     51 H           0.6131   -0.1939    2.1580 H       1  UNL1        0.1084
     52 H           5.4890   -2.5319   -2.9829 H       1  UNL1        0.0691
     53 H           4.1409   -5.6273   -4.3482 H       1  UNL1        0.2921
     54 H           2.0937   -5.1425   -3.0789 H       1  UNL1        0.0691
     55 H          -0.1480   -3.1014   -1.2208 H       1  UNL1        0.2922
     56 H           3.0559    2.5994   -0.2389 H       1  UNL1        0.0662
     57 H           3.2747    4.9838    0.2247 H       1  UNL1        0.2923
     58 H           6.6477    5.5120    0.9525 H       1  UNL1        0.2923
     59 H           7.9177    2.1131    0.6153 H       1  UNL1        0.0655
     60 H           6.5796    0.1282    0.0467 H       1  UNL1        0.0626
     61 H           1.0291    2.8564    1.9334 H       1  UNL1        0.0683
     62 H           1.7852    2.6696    3.9819 H       1  UNL1        0.2102
     63 H          -0.9145    1.2346    3.7064 H       1  UNL1        0.0648
     64 H          -1.6318    3.2209    4.2960 H       1  UNL1        0.2100
     65 H          -1.5519    2.9939    1.2466 H       1  UNL1        0.0647
     66 H          -3.1408    1.1867    2.8075 H       1  UNL1        0.2100
     67 H          -5.9034   -0.0318    0.7379 H       1  UNL1        0.0671
     68 H          -5.8233   -1.3235    2.5571 H       1  UNL1        0.2101
     69 H          -5.5348   -3.0421    0.3107 H       1  UNL1        0.0648
     70 H          -7.6765   -2.8635   -0.2427 H       1  UNL1        0.2100
@<TRIPOS>BOND
     1     1     2    1
     2     2     3    1
     3     1     4    1
     4     4     5    1
     5     5     6    1
     6     6     7    1
     7     7     8    1
     8     8     9    1
     9     9    10    1
    10    10    11    1
    11    11    12    1
    12    12    13   ar
    13    13    14   ar
    14    14    15   ar
    15    15    16   ar
    16    16    17   ar
    17    17    18    1
    18    17    19   ar
    19    19    20   ar
    20    20    21    1
    21    20    22   ar
    22    22    23   ar
    23    23    24    2
    24    13    25    1
    25    25    26   ar
    26    26    27   ar
    27    27    28    1
    28    27    29   ar
    29    29    30    1
    30    29    31   ar
    31    31    32   ar
    32    10    33    1
    33    33    34    1
    34    33    35    1
    35    35    36    1
    36    35    37    1
    37    37    38    1
    38     5    39    1
    39    39    40    1
    40    39    41    1
    41    41    42    1
    42    41     1    1
    43    37     8    1
    44    23    12   ar
    45    32    25   ar
    46    22    15   ar
    47     1    43    1
    48     2    44    1
    49     2    45    1
    50     3    46    1
    51     5    47    1
    52     7    48    1
    53     7    49    1
    54     8    50    1
    55    10    51    1
    56    16    52    1
    57    18    53    1
    58    19    54    1
    59    21    55    1
    60    26    56    1
    61    28    57    1
    62    30    58    1
    63    31    59    1
    64    32    60    1
    65    33    61    1
    66    34    62    1
    67    35    63    1
    68    36    64    1
    69    37    65    1
    70    38    66    1
    71    39    67    1
    72    40    68    1
    73    41    69    1
    74    42    70    1
