@<TRIPOS>MOLECULE
Quercetin 3-O-acetyl-rhamnoside
 57 60 0 0 0
SMALL
GASTEIGER

@<TRIPOS>ATOM
      1 C          -2.6825    1.9003   -1.9983 C.3     1  UNL1        0.0884
      2 C          -2.0795    1.5789   -3.3712 C.3     1  UNL1       -0.0360
      3 O          -1.6640    2.3457   -1.1059 O.3     1  UNL1       -0.3331
      4 C          -1.0988    1.2738   -0.3777 C.3     1  UNL1        0.2423
      5 O           0.0742    1.7387    0.2906 O.3     1  UNL1       -0.4521
      6 C           1.0134    0.8587    0.8438 C.ar    1  UNL1        0.2138
      7 C           1.8195    0.0329    0.0362 C.ar    1  UNL1        0.1810
      8 O           2.6352   -0.8460    0.6064 O.2     1  UNL1       -0.4507
      9 C           2.7482   -0.9934    1.9214 C.ar    1  UNL1        0.1465
     10 C           3.6545   -1.9363    2.4119 C.ar    1  UNL1        0.0231
     11 C           3.8187   -2.1102    3.7868 C.ar    1  UNL1        0.1239
     12 O           4.7360   -3.0349    4.2812 O.3     1  UNL1       -0.5065
     13 C           3.0520   -1.3588    4.6764 C.ar    1  UNL1        0.0223
     14 C           2.1077   -0.4336    4.2148 C.ar    1  UNL1        0.1348
     15 O           1.3210    0.1922    5.1863 O.3     1  UNL1       -0.5058
     16 C           1.9755   -0.2037    2.8127 C.ar    1  UNL1        0.1092
     17 C           1.1320    0.7740    2.2350 C.ar    1  UNL1        0.2382
     18 O           0.4799    1.5866    2.9411 O.2     1  UNL1       -0.2830
     19 C           1.7968    0.1068   -1.4422 C.ar    1  UNL1        0.0247
     20 C           1.7632    1.3431   -2.1123 C.ar    1  UNL1       -0.0057
     21 C           1.7099    1.3914   -3.5124 C.ar    1  UNL1        0.1589
     22 O           1.6546    2.6167   -4.1742 O.3     1  UNL1       -0.5033
     23 C           1.7108    0.2027   -4.2524 C.ar    1  UNL1        0.1583
     24 O           1.6522    0.2544   -5.6438 O.3     1  UNL1       -0.5033
     25 C           1.7723   -1.0302   -3.5899 C.ar    1  UNL1       -0.0159
     26 C           1.8210   -1.0779   -2.1943 C.ar    1  UNL1       -0.0473
     27 C          -2.1118    0.7393    0.6557 C.3     1  UNL1        0.1928
     28 O          -1.7169   -0.5855    1.0244 O.3     1  UNL1       -0.4525
     29 C          -1.9268   -1.1345    2.2942 C.2     1  UNL1        0.3045
     30 C          -1.3526   -2.4715    2.6156 C.3     1  UNL1        0.0332
     31 O          -2.5448   -0.4898    3.1844 O.2     1  UNL1       -0.2512
     32 C          -3.5561    0.7664    0.0905 C.3     1  UNL1        0.1262
     33 O          -4.3037   -0.3081    0.6029 O.3     1  UNL1       -0.3852
     34 C          -3.5416    0.7197   -1.4472 C.3     1  UNL1        0.1106
     35 O          -4.8569    0.8100   -1.9324 O.3     1  UNL1       -0.3865
     36 H          -3.3644    2.7669   -2.1442 H       1  UNL1        0.0621
     37 H          -1.4173    0.6896   -3.3189 H       1  UNL1        0.0255
     38 H          -2.8859    1.3800   -4.1081 H       1  UNL1        0.0255
     39 H          -1.4822    2.4435   -3.7307 H       1  UNL1        0.0255
     40 H          -0.8133    0.4517   -1.0718 H       1  UNL1        0.1096
     41 H           4.2423   -2.5266    1.7195 H       1  UNL1        0.0691
     42 H           5.3063   -3.5988    3.6618 H       1  UNL1        0.2921
     43 H           3.1669   -1.5190    5.7414 H       1  UNL1        0.0691
     44 H           0.4365    0.6428    5.0076 H       1  UNL1        0.2922
     45 H           1.7828    2.2692   -1.5520 H       1  UNL1        0.0662
     46 H           1.6458    3.4935   -3.6664 H       1  UNL1        0.2923
     47 H           1.6509   -0.5889   -6.2058 H       1  UNL1        0.2923
     48 H           1.7775   -1.9530   -4.1559 H       1  UNL1        0.0655
     49 H           1.8557   -2.0410   -1.6998 H       1  UNL1        0.0626
     50 H          -2.0731    1.4046    1.5482 H       1  UNL1        0.0825
     51 H          -1.2141   -3.0581    1.6834 H       1  UNL1        0.0342
     52 H          -2.0346   -3.0276    3.2928 H       1  UNL1        0.0342
     53 H          -0.3683   -2.3401    3.1116 H       1  UNL1        0.0342
     54 H          -4.0248    1.7304    0.4048 H       1  UNL1        0.0659
     55 H          -5.2610   -0.0522    0.5421 H       1  UNL1        0.2101
     56 H          -3.0965   -0.2583   -1.7515 H       1  UNL1        0.0646
     57 H          -4.8417    0.4735   -2.8660 H       1  UNL1        0.2100
@<TRIPOS>BOND
     1     1     2    1
     2     1     3    1
     3     3     4    1
     4     4     5    1
     5     5     6    1
     6     6     7   ar
     7     7     8   ar
     8     8     9   ar
     9     9    10   ar
    10    10    11   ar
    11    11    12    1
    12    11    13   ar
    13    13    14   ar
    14    14    15    1
    15    14    16   ar
    16    16    17   ar
    17    17    18    2
    18     7    19    1
    19    19    20   ar
    20    20    21   ar
    21    21    22    1
    22    21    23   ar
    23    23    24    1
    24    23    25   ar
    25    25    26   ar
    26     4    27    1
    27    27    28    1
    28    28    29    1
    29    29    30    1
    30    29    31    2
    31    27    32    1
    32    32    33    1
    33    32    34    1
    34    34    35    1
    35    34     1    1
    36    17     6   ar
    37    26    19   ar
    38    16     9   ar
    39     1    36    1
    40     2    37    1
    41     2    38    1
    42     2    39    1
    43     4    40    1
    44    10    41    1
    45    12    42    1
    46    13    43    1
    47    15    44    1
    48    20    45    1
    49    22    46    1
    50    24    47    1
    51    25    48    1
    52    26    49    1
    53    27    50    1
    54    30    51    1
    55    30    52    1
    56    30    53    1
    57    32    54    1
    58    33    55    1
    59    34    56    1
    60    35    57    1
