@<TRIPOS>MOLECULE
Kaempferol 3-O-galactoside
 52 55 0 0 0
SMALL
GASTEIGER

@<TRIPOS>ATOM
      1 O           4.8260   -2.2898    1.8611 O.3     1  UNL1       -0.3924
      2 C           3.5362   -1.7395    1.9113 C.3     1  UNL1        0.0731
      3 C           3.2969   -0.8012    0.7200 C.3     1  UNL1        0.1140
      4 O           1.9455   -0.3732    0.7479 O.3     1  UNL1       -0.3313
      5 C           1.6181    0.3112   -0.4505 C.3     1  UNL1        0.2311
      6 O           0.2315    0.6434   -0.4326 O.3     1  UNL1       -0.4532
      7 C          -0.8640   -0.2443   -0.4106 C.ar    1  UNL1        0.2138
      8 C          -2.1517    0.3032   -0.2568 C.ar    1  UNL1        0.1809
      9 O          -3.2188   -0.4843   -0.2748 O.2     1  UNL1       -0.4507
     10 C          -3.1562   -1.7988   -0.4316 C.ar    1  UNL1        0.1465
     11 C          -4.3459   -2.5304   -0.3969 C.ar    1  UNL1        0.0231
     12 C          -4.3279   -3.9157   -0.5334 C.ar    1  UNL1        0.1239
     13 O          -5.5235   -4.6283   -0.4721 O.3     1  UNL1       -0.5065
     14 C          -3.1145   -4.5760   -0.7391 C.ar    1  UNL1        0.0223
     15 C          -1.9108   -3.8652   -0.8210 C.ar    1  UNL1        0.1348
     16 O          -0.7695   -4.6108   -1.1317 O.3     1  UNL1       -0.5058
     17 C          -1.9114   -2.4508   -0.6185 C.ar    1  UNL1        0.1092
     18 C          -0.7460   -1.6466   -0.5620 C.ar    1  UNL1        0.2382
     19 O           0.3934   -2.1727   -0.6206 O.2     1  UNL1       -0.2830
     20 C          -2.3678    1.7569   -0.0751 C.ar    1  UNL1        0.0213
     21 C          -3.4093    2.3932   -0.7702 C.ar    1  UNL1       -0.0475
     22 C          -3.6419    3.7613   -0.5997 C.ar    1  UNL1       -0.0195
     23 C          -2.8480    4.5063    0.2776 C.ar    1  UNL1        0.1169
     24 O          -3.0900    5.8689    0.4362 O.3     1  UNL1       -0.5068
     25 C          -1.8211    3.8750    0.9914 C.ar    1  UNL1       -0.0195
     26 C          -1.5864    2.5071    0.8232 C.ar    1  UNL1       -0.0475
     27 C           2.4293    1.6193   -0.5505 C.3     1  UNL1        0.1454
     28 O           2.1130    2.3159   -1.7305 O.3     1  UNL1       -0.3829
     29 C           3.9414    1.3164   -0.4745 C.3     1  UNL1        0.1152
     30 O           4.6740    2.5105   -0.3746 O.3     1  UNL1       -0.3864
     31 C           4.2431    0.4247    0.7415 C.3     1  UNL1        0.1120
     32 O           4.0565    1.1659    1.9233 O.3     1  UNL1       -0.3865
     33 H           5.4155   -1.6934    2.3919 H       1  UNL1        0.2095
     34 H           3.3582   -1.2118    2.8768 H       1  UNL1        0.0584
     35 H           2.8037   -2.5730    1.8581 H       1  UNL1        0.0584
     36 H           3.4952   -1.4013   -0.2002 H       1  UNL1        0.0647
     37 H           1.8246   -0.3153   -1.3492 H       1  UNL1        0.1084
     38 H          -5.2891   -2.0192   -0.2469 H       1  UNL1        0.0691
     39 H          -5.5453   -5.6367   -0.5702 H       1  UNL1        0.2921
     40 H          -3.1078   -5.6510   -0.8712 H       1  UNL1        0.0691
     41 H           0.0785   -4.2293   -1.5230 H       1  UNL1        0.2922
     42 H          -4.0344    1.8327   -1.4549 H       1  UNL1        0.0626
     43 H          -4.4408    4.2428   -1.1492 H       1  UNL1        0.0654
     44 H          -2.5332    6.4357    1.0652 H       1  UNL1        0.2921
     45 H          -1.2101    4.4411    1.6829 H       1  UNL1        0.0654
     46 H          -0.8098    2.0340    1.4106 H       1  UNL1        0.0626
     47 H           2.1526    2.2665    0.3115 H       1  UNL1        0.0683
     48 H           2.3532    1.7335   -2.4982 H       1  UNL1        0.2102
     49 H           4.2540    0.7608   -1.3912 H       1  UNL1        0.0648
     50 H           4.7052    2.9058   -1.2848 H       1  UNL1        0.2100
     51 H           5.3023    0.0829    0.6557 H       1  UNL1        0.0647
     52 H           4.7271    0.8436    2.5803 H       1  UNL1        0.2100
@<TRIPOS>BOND
     1     1     2    1
     2     2     3    1
     3     3     4    1
     4     4     5    1
     5     5     6    1
     6     6     7    1
     7     7     8   ar
     8     8     9   ar
     9     9    10   ar
    10    10    11   ar
    11    11    12   ar
    12    12    13    1
    13    12    14   ar
    14    14    15   ar
    15    15    16    1
    16    15    17   ar
    17    17    18   ar
    18    18    19    2
    19     8    20    1
    20    20    21   ar
    21    21    22   ar
    22    22    23   ar
    23    23    24    1
    24    23    25   ar
    25    25    26   ar
    26     5    27    1
    27    27    28    1
    28    27    29    1
    29    29    30    1
    30    29    31    1
    31    31    32    1
    32    31     3    1
    33    18     7   ar
    34    26    20   ar
    35    17    10   ar
    36     1    33    1
    37     2    34    1
    38     2    35    1
    39     3    36    1
    40     5    37    1
    41    11    38    1
    42    13    39    1
    43    14    40    1
    44    16    41    1
    45    21    42    1
    46    22    43    1
    47    24    44    1
    48    25    45    1
    49    26    46    1
    50    27    47    1
    51    28    48    1
    52    29    49    1
    53    30    50    1
    54    31    51    1
    55    32    52    1
