@<TRIPOS>MOLECULE
Cyanidin 3-O-(6''-acetyl-galactoside)
 58 61 0 0 0
SMALL
GASTEIGER

@<TRIPOS>ATOM
      1 C           2.7190    0.5713   -0.0796 C.3     1  UNL1        0.1250
      2 C           3.1878    1.4911   -1.2171 C.3     1  UNL1        0.1212
      3 O           4.4451    2.0928   -0.9063 O.3     1  UNL1       -0.4621
      4 C           5.6761    1.6101   -1.3654 C.2     1  UNL1        0.3040
      5 C           6.9356    2.2601   -0.9040 C.3     1  UNL1        0.0332
      6 O           5.7362    0.6119   -2.1335 O.2     1  UNL1       -0.2512
      7 O           1.3888    0.1641   -0.3516 O.3     1  UNL1       -0.3302
      8 C           0.8356   -0.5051    0.7698 C.3     1  UNL1        0.2313
      9 O          -0.5342   -0.7988    0.5034 O.3     1  UNL1       -0.4515
     10 C          -1.5446    0.1546    0.2903 C.ar    1  UNL1        0.2288
     11 C          -1.3047    1.5351    0.3951 C.ar    1  UNL1        0.0093
     12 C          -2.3546    2.4508    0.2179 C.ar    1  UNL1        0.1241
     13 C          -2.1867    3.8578    0.3077 C.ar    1  UNL1        0.1366
     14 O          -0.9541    4.4682    0.5587 O.3     1  UNL1       -0.5057
     15 C          -3.2960    4.6952    0.1365 C.ar    1  UNL1        0.0225
     16 C          -4.5633    4.1637   -0.1269 C.ar    1  UNL1        0.1293
     17 O          -5.6631    5.0017   -0.2970 O.3     1  UNL1       -0.5063
     18 C          -4.7305    2.7821   -0.2219 C.ar    1  UNL1        0.0847
     19 C          -3.6398    1.9251   -0.0530 C.ar    1  UNL1        0.3708
     20 O          -3.8276    0.6143   -0.1519 O.2     1  UNL1       -0.1997
     21 C          -2.8510   -0.2769   -0.0094 C.ar    1  UNL1        0.4046
     22 C          -3.1877   -1.7118   -0.1550 C.ar    1  UNL1        0.0865
     23 C          -4.3809   -2.1996    0.3950 C.ar    1  UNL1       -0.0418
     24 C          -4.7223   -3.5464    0.2600 C.ar    1  UNL1       -0.0157
     25 C          -3.8893   -4.4282   -0.4372 C.ar    1  UNL1        0.1583
     26 O          -4.2840   -5.7645   -0.5289 O.3     1  UNL1       -0.5033
     27 C          -2.6950   -3.9414   -1.0192 C.ar    1  UNL1        0.1591
     28 O          -1.8232   -4.7561   -1.7446 O.3     1  UNL1       -0.5033
     29 C          -2.3603   -2.5889   -0.8774 C.ar    1  UNL1       -0.0003
     30 C           1.5842   -1.8278    1.0239 C.3     1  UNL1        0.1454
     31 O           1.0699   -2.4615    2.1670 O.3     1  UNL1       -0.3829
     32 C           3.0799   -1.5441    1.2326 C.3     1  UNL1        0.1152
     33 O           3.7819   -2.7581    1.3054 O.3     1  UNL1       -0.3864
     34 C           3.6266   -0.6689    0.0855 C.3     1  UNL1        0.1130
     35 O           3.6523   -1.4025   -1.1143 O.3     1  UNL1       -0.3864
     36 H           2.7544    1.1803    0.8551 H       1  UNL1        0.0658
     37 H           2.4423    2.3071   -1.3299 H       1  UNL1        0.0724
     38 H           3.2233    0.9508   -2.1883 H       1  UNL1        0.0724
     39 H           7.6797    2.2780   -1.7280 H       1  UNL1        0.0342
     40 H           6.7293    3.3031   -0.5844 H       1  UNL1        0.0342
     41 H           7.3512    1.6918   -0.0461 H       1  UNL1        0.0342
     42 H           0.8867    0.1296    1.6860 H       1  UNL1        0.1084
     43 H          -0.3110    1.8738    0.6292 H       1  UNL1        0.0667
     44 H          -0.0823    3.9724    0.6736 H       1  UNL1        0.2922
     45 H          -3.1690    5.7685    0.2067 H       1  UNL1        0.0691
     46 H          -5.5762    6.0094   -0.2347 H       1  UNL1        0.2921
     47 H          -5.7118    2.3725   -0.4279 H       1  UNL1        0.0749
     48 H          -5.0428   -1.5400    0.9430 H       1  UNL1        0.0628
     49 H          -5.6417   -3.9092    0.7024 H       1  UNL1        0.0655
     50 H          -3.7499   -6.4797   -1.0009 H       1  UNL1        0.2923
     51 H          -1.9777   -5.7396   -1.9127 H       1  UNL1        0.2923
     52 H          -1.4606   -2.2224   -1.3559 H       1  UNL1        0.0664
     53 H           1.4658   -2.4909    0.1334 H       1  UNL1        0.0683
     54 H           0.2372   -2.9257    1.8894 H       1  UNL1        0.2102
     55 H           3.2004   -0.9897    2.1942 H       1  UNL1        0.0648
     56 H           4.6798   -2.5468    1.6731 H       1  UNL1        0.2100
     57 H           4.6541   -0.3325    0.3572 H       1  UNL1        0.0647
     58 H           4.4931   -1.9301   -1.1128 H       1  UNL1        0.2100
@<TRIPOS>UNITY_ATOM_ATTR
20 1
charge 1
@<TRIPOS>BOND
     1     1     2    1
     2     2     3    1
     3     3     4    1
     4     4     5    1
     5     4     6    2
     6     1     7    1
     7     7     8    1
     8     8     9    1
     9     9    10    1
    10    10    11   ar
    11    11    12   ar
    12    12    13   ar
    13    13    14    1
    14    13    15   ar
    15    15    16   ar
    16    16    17    1
    17    16    18   ar
    18    18    19   ar
    19    19    20   ar
    20    20    21   ar
    21    21    22    1
    22    22    23   ar
    23    23    24   ar
    24    24    25   ar
    25    25    26    1
    26    25    27   ar
    27    27    28    1
    28    27    29   ar
    29     8    30    1
    30    30    31    1
    31    30    32    1
    32    32    33    1
    33    32    34    1
    34    34    35    1
    35    34     1    1
    36    21    10   ar
    37    29    22   ar
    38    19    12   ar
    39     1    36    1
    40     2    37    1
    41     2    38    1
    42     5    39    1
    43     5    40    1
    44     5    41    1
    45     8    42    1
    46    11    43    1
    47    14    44    1
    48    15    45    1
    49    17    46    1
    50    18    47    1
    51    23    48    1
    52    24    49    1
    53    26    50    1
    54    28    51    1
    55    29    52    1
    56    30    53    1
    57    31    54    1
    58    32    55    1
    59    33    56    1
    60    34    57    1
    61    35    58    1
