@<TRIPOS>MOLECULE
Pelargonidin 3-O-(6''-succinyl-glucoside)
 63 66 0 0 0
SMALL
GASTEIGER

@<TRIPOS>ATOM
      1 C           2.1077   -1.3636   -1.4286 C.3     1  UNL1        0.1250
      2 C           2.9985   -2.4880   -0.8879 C.3     1  UNL1        0.1212
      3 O           3.5106   -2.1340    0.3933 O.3     1  UNL1       -0.4619
      4 C           4.4257   -2.9276    1.0893 C.2     1  UNL1        0.3077
      5 O           4.7981   -4.0389    0.6234 O.2     1  UNL1       -0.2508
      6 C           4.9579   -2.4560    2.4092 C.3     1  UNL1        0.0550
      7 C           5.5167   -1.0306    2.3238 C.3     1  UNL1        0.0548
      8 C           6.6978   -0.9557    1.4051 C.2     1  UNL1        0.3052
      9 O           7.9524   -1.3537    1.8558 O.3     1  UNL1       -0.4806
     10 O           6.5497   -0.5655    0.2159 O.2     1  UNL1       -0.2510
     11 O           1.0407   -1.1609   -0.5172 O.3     1  UNL1       -0.3302
     12 C           0.0847   -0.2594   -1.0462 C.3     1  UNL1        0.2313
     13 O          -0.9924   -0.1839   -0.1093 O.3     1  UNL1       -0.4515
     14 C          -2.3058    0.2562   -0.3569 C.ar    1  UNL1        0.2288
     15 C          -2.8171    0.4293   -1.6547 C.ar    1  UNL1        0.0093
     16 C          -4.1152    0.9206   -1.8351 C.ar    1  UNL1        0.1241
     17 C          -4.6651    1.1261   -3.1156 C.ar    1  UNL1        0.1366
     18 O          -3.9218    0.8362   -4.2604 O.3     1  UNL1       -0.5057
     19 C          -5.9694    1.6277   -3.2371 C.ar    1  UNL1        0.0225
     20 C          -6.7250    1.9249   -2.0983 C.ar    1  UNL1        0.1293
     21 O          -8.0179    2.4230   -2.2432 O.3     1  UNL1       -0.5063
     22 C          -6.1785    1.7201   -0.8250 C.ar    1  UNL1        0.0847
     23 C          -4.8801    1.2193   -0.6889 C.ar    1  UNL1        0.3708
     24 O          -4.3756    1.0236    0.5236 O.2     1  UNL1       -0.1997
     25 C          -3.1500    0.5488    0.7357 C.ar    1  UNL1        0.4045
     26 C          -2.7069    0.3676    2.1367 C.ar    1  UNL1        0.0830
     27 C          -2.0171   -0.7894    2.5436 C.ar    1  UNL1       -0.0420
     28 C          -1.6231   -0.9453    3.8759 C.ar    1  UNL1       -0.0193
     29 C          -1.9244    0.0413    4.8194 C.ar    1  UNL1        0.1169
     30 O          -1.5240   -0.1270    6.1430 O.3     1  UNL1       -0.5068
     31 C          -2.6296    1.1861    4.4261 C.ar    1  UNL1       -0.0193
     32 C          -3.0250    1.3447    3.0944 C.ar    1  UNL1       -0.0420
     33 C           0.7253    1.1389   -1.2136 C.3     1  UNL1        0.1454
     34 O          -0.1976    2.0710   -1.7192 O.3     1  UNL1       -0.3829
     35 C           1.9698    1.0559   -2.1175 C.3     1  UNL1        0.1152
     36 O           2.6332    2.2939   -2.1016 O.3     1  UNL1       -0.3864
     37 C           2.9105   -0.0553   -1.6182 C.3     1  UNL1        0.1130
     38 O           3.9373   -0.2635   -2.5550 O.3     1  UNL1       -0.3864
     39 H           1.7177   -1.7073   -2.4159 H       1  UNL1        0.0658
     40 H           3.8385   -2.6794   -1.5911 H       1  UNL1        0.0724
     41 H           2.3993   -3.4204   -0.7998 H       1  UNL1        0.0724
     42 H           5.7509   -3.1467    2.7723 H       1  UNL1        0.0383
     43 H           4.1289   -2.4743    3.1482 H       1  UNL1        0.0383
     44 H           5.8340   -0.7076    3.3383 H       1  UNL1        0.0383
     45 H           4.7242   -0.3280    1.9839 H       1  UNL1        0.0383
     46 H           8.7581   -1.3231    1.2426 H       1  UNL1        0.2951
     47 H          -0.2867   -0.6509   -2.0183 H       1  UNL1        0.1084
     48 H          -2.2202    0.1897   -2.5207 H       1  UNL1        0.0667
     49 H          -4.3001    0.9783   -5.1896 H       1  UNL1        0.2922
     50 H          -6.3978    1.7882   -4.2186 H       1  UNL1        0.0691
     51 H          -8.5919    2.6484   -1.4390 H       1  UNL1        0.2921
     52 H          -6.7621    1.9483    0.0583 H       1  UNL1        0.0749
     53 H          -1.8022   -1.5829    1.8393 H       1  UNL1        0.0628
     54 H          -1.0900   -1.8382    4.1772 H       1  UNL1        0.0654
     55 H          -1.7285    0.5691    6.8505 H       1  UNL1        0.2921
     56 H          -2.8726    1.9526    5.1510 H       1  UNL1        0.0654
     57 H          -3.5683    2.2371    2.8082 H       1  UNL1        0.0628
     58 H           1.0452    1.4906   -0.2073 H       1  UNL1        0.0683
     59 H          -0.4271    1.7967   -2.6452 H       1  UNL1        0.2102
     60 H           1.6413    0.8101   -3.1565 H       1  UNL1        0.0648
     61 H           3.1626    2.3494   -2.9396 H       1  UNL1        0.2100
     62 H           3.3397    0.2493   -0.6330 H       1  UNL1        0.0647
     63 H           4.6524    0.3944   -2.3519 H       1  UNL1        0.2100
@<TRIPOS>UNITY_ATOM_ATTR
24 1
charge 1
@<TRIPOS>BOND
     1     1     2    1
     2     2     3    1
     3     3     4    1
     4     4     5    2
     5     4     6    1
     6     6     7    1
     7     7     8    1
     8     8     9    1
     9     8    10    2
    10     1    11    1
    11    11    12    1
    12    12    13    1
    13    13    14    1
    14    14    15   ar
    15    15    16   ar
    16    16    17   ar
    17    17    18    1
    18    17    19   ar
    19    19    20   ar
    20    20    21    1
    21    20    22   ar
    22    22    23   ar
    23    23    24   ar
    24    24    25   ar
    25    25    26    1
    26    26    27   ar
    27    27    28   ar
    28    28    29   ar
    29    29    30    1
    30    29    31   ar
    31    31    32   ar
    32    12    33    1
    33    33    34    1
    34    33    35    1
    35    35    36    1
    36    35    37    1
    37    37    38    1
    38    37     1    1
    39    25    14   ar
    40    32    26   ar
    41    23    16   ar
    42     1    39    1
    43     2    40    1
    44     2    41    1
    45     6    42    1
    46     6    43    1
    47     7    44    1
    48     7    45    1
    49     9    46    1
    50    12    47    1
    51    15    48    1
    52    18    49    1
    53    19    50    1
    54    21    51    1
    55    22    52    1
    56    27    53    1
    57    28    54    1
    58    30    55    1
    59    31    56    1
    60    32    57    1
    61    33    58    1
    62    34    59    1
    63    35    60    1
    64    36    61    1
    65    37    62    1
    66    38    63    1
