@<TRIPOS>MOLECULE
Galangin
 30 32 0 0 0
SMALL
GASTEIGER

@<TRIPOS>ATOM
      1 O          -4.2142    3.0612    0.4098 O.3     1  UNL1       -0.5065
      2 C          -3.4947    1.8796    0.2453 C.ar    1  UNL1        0.1239
      3 C          -4.1796    0.6733    0.0834 C.ar    1  UNL1        0.0223
      4 C          -3.4792   -0.5304   -0.0850 C.ar    1  UNL1        0.1348
      5 O          -4.1928   -1.7189   -0.2454 O.3     1  UNL1       -0.5058
      6 C          -2.0633   -0.5240   -0.0904 C.ar    1  UNL1        0.1092
      7 C          -1.3796    0.7031    0.0767 C.ar    1  UNL1        0.1465
      8 O          -0.0522    0.7421    0.0820 O.2     1  UNL1       -0.4507
      9 C           0.7116   -0.3370   -0.0625 C.ar    1  UNL1        0.1806
     10 C           0.1130   -1.5965   -0.2597 C.ar    1  UNL1        0.2082
     11 O           0.9037   -2.7276   -0.4779 O.3     1  UNL1       -0.5007
     12 C          -1.2876   -1.6887   -0.2629 C.ar    1  UNL1        0.2379
     13 O          -1.8348   -2.8131   -0.4276 O.2     1  UNL1       -0.2830
     14 C           2.1813   -0.1611   -0.0271 C.ar    1  UNL1        0.0211
     15 C           2.7602    0.9512   -0.6622 C.ar    1  UNL1       -0.0510
     16 C           4.1439    1.1484   -0.6216 C.ar    1  UNL1       -0.0611
     17 C           4.9603    0.2462    0.0647 C.ar    1  UNL1       -0.0617
     18 C           4.3935   -0.8507    0.7181 C.ar    1  UNL1       -0.0611
     19 C           3.0102   -1.0527    0.6796 C.ar    1  UNL1       -0.0510
     20 C          -2.0961    1.8922    0.2415 C.ar    1  UNL1        0.0231
     21 H          -3.7482    3.9530    0.5297 H       1  UNL1        0.2921
     22 H          -5.2625    0.6722    0.0879 H       1  UNL1        0.0691
     23 H          -5.2060   -1.7367   -0.2435 H       1  UNL1        0.2922
     24 H           0.5058   -3.6462   -0.6323 H       1  UNL1        0.2924
     25 H           2.1418    1.6603   -1.1990 H       1  UNL1        0.0625
     26 H           4.5831    2.0022   -1.1212 H       1  UNL1        0.0618
     27 H           6.0310    0.4015    0.0969 H       1  UNL1        0.0618
     28 H           5.0254   -1.5405    1.2625 H       1  UNL1        0.0618
     29 H           2.5894   -1.8891    1.2225 H       1  UNL1        0.0625
     30 H          -1.5636    2.8268    0.3681 H       1  UNL1        0.0691
@<TRIPOS>BOND
     1     1     2    1
     2     2     3   ar
     3     3     4   ar
     4     4     5    1
     5     4     6   ar
     6     6     7   ar
     7     7     8   ar
     8     8     9   ar
     9     9    10   ar
    10    10    11    1
    11    10    12   ar
    12    12    13    2
    13     9    14    1
    14    14    15   ar
    15    15    16   ar
    16    16    17   ar
    17    17    18   ar
    18    18    19   ar
    19     7    20   ar
    20    20     2   ar
    21    12     6   ar
    22    19    14   ar
    23     1    21    1
    24     3    22    1
    25     5    23    1
    26    11    24    1
    27    15    25    1
    28    16    26    1
    29    17    27    1
    30    18    28    1
    31    19    29    1
    32    20    30    1
