@<TRIPOS>MOLECULE
Isorhamnetin
 35 37 0 0 0
SMALL
GASTEIGER

@<TRIPOS>ATOM
      1 C           3.8457    2.4117    1.5162 C.3     1  UNL1        0.0790
      2 O           4.3692    1.4466    0.6095 O.3     1  UNL1       -0.4914
      3 C           3.5893    0.5475   -0.1355 C.ar    1  UNL1        0.1619
      4 C           4.2347   -0.3585   -0.9964 C.ar    1  UNL1        0.1585
      5 O           5.6241   -0.3716   -1.1187 O.3     1  UNL1       -0.5033
      6 C           3.4834   -1.2697   -1.7439 C.ar    1  UNL1       -0.0159
      7 C           2.0910   -1.2851   -1.6493 C.ar    1  UNL1       -0.0473
      8 C           1.4268   -0.3748   -0.8111 C.ar    1  UNL1        0.0247
      9 C           2.1829    0.5267   -0.0443 C.ar    1  UNL1       -0.0055
     10 C          -0.0477   -0.3892   -0.6749 C.ar    1  UNL1        0.1807
     11 C          -0.9008   -0.5172   -1.7880 C.ar    1  UNL1        0.2082
     12 O          -0.3709   -0.5895   -3.0789 O.3     1  UNL1       -0.5007
     13 C          -2.2887   -0.5406   -1.5797 C.ar    1  UNL1        0.2379
     14 O          -3.0622   -0.6658   -2.5679 O.2     1  UNL1       -0.2830
     15 C          -2.7994   -0.4160   -0.2713 C.ar    1  UNL1        0.1092
     16 C          -4.1842   -0.4260    0.0236 C.ar    1  UNL1        0.1348
     17 O          -5.1332   -0.5717   -0.9890 O.3     1  UNL1       -0.5058
     18 C          -4.6134   -0.2874    1.3519 C.ar    1  UNL1        0.0223
     19 C          -3.6854   -0.1385    2.3889 C.ar    1  UNL1        0.1239
     20 O          -4.1114    0.0002    3.7081 O.3     1  UNL1       -0.5065
     21 C          -2.3194   -0.1287    2.1028 C.ar    1  UNL1        0.0231
     22 C          -1.8713   -0.2671    0.7859 C.ar    1  UNL1        0.1465
     23 O          -0.5657   -0.2593    0.5431 O.2     1  UNL1       -0.4507
     24 H           3.2866    1.9060    2.3316 H       1  UNL1        0.0660
     25 H           4.6856    2.9822    1.9627 H       1  UNL1        0.0660
     26 H           3.1813    3.1205    0.9781 H       1  UNL1        0.0660
     27 H           6.2179    0.2647   -0.6005 H       1  UNL1        0.2923
     28 H           3.9828   -1.9757   -2.3954 H       1  UNL1        0.0655
     29 H           1.5376   -2.0252   -2.2128 H       1  UNL1        0.0626
     30 H           1.6685    1.2164    0.6118 H       1  UNL1        0.0662
     31 H          -0.9558   -0.6727   -3.9016 H       1  UNL1        0.2924
     32 H          -6.1271   -0.5803   -0.7911 H       1  UNL1        0.2922
     33 H          -5.6723   -0.2948    1.5786 H       1  UNL1        0.0691
     34 H          -5.0954   -0.0029    3.9503 H       1  UNL1        0.2921
     35 H          -1.6030   -0.0145    2.9071 H       1  UNL1        0.0691
@<TRIPOS>BOND
     1     1     2    1
     2     2     3    1
     3     3     4   ar
     4     4     5    1
     5     4     6   ar
     6     6     7   ar
     7     7     8   ar
     8     8     9   ar
     9     8    10    1
    10    10    11   ar
    11    11    12    1
    12    11    13   ar
    13    13    14    2
    14    13    15   ar
    15    15    16   ar
    16    16    17    1
    17    16    18   ar
    18    18    19   ar
    19    19    20    1
    20    19    21   ar
    21    21    22   ar
    22    22    23   ar
    23     9     3   ar
    24    23    10   ar
    25    22    15   ar
    26     1    24    1
    27     1    25    1
    28     1    26    1
    29     5    27    1
    30     6    28    1
    31     7    29    1
    32     9    30    1
    33    12    31    1
    34    17    32    1
    35    18    33    1
    36    20    34    1
    37    21    35    1
