@<TRIPOS>MOLECULE
Kaempferol 3-O-glucoside
 52 55 0 0 0
SMALL
GASTEIGER

@<TRIPOS>ATOM
      1 O           3.6630   -2.8101   -1.6624 O.3     1  UNL1       -0.3924
      2 C           2.6532   -2.2514   -0.8638 C.3     1  UNL1        0.0731
      3 C           2.4970   -0.7474   -1.1504 C.3     1  UNL1        0.1140
      4 O           1.2966   -0.2848   -0.5355 O.3     1  UNL1       -0.3313
      5 C           1.4668    0.6294    0.5404 C.3     1  UNL1        0.2311
      6 O           0.2635    0.6675    1.3036 O.3     1  UNL1       -0.4532
      7 C          -0.9742    0.9601    0.7248 C.ar    1  UNL1        0.2138
      8 C          -1.7918   -0.0624    0.2039 C.ar    1  UNL1        0.1809
      9 O          -2.9422    0.2513   -0.3854 O.2     1  UNL1       -0.4507
     10 C          -3.3895    1.4977   -0.4945 C.ar    1  UNL1        0.1465
     11 C          -4.6143    1.7286   -1.1274 C.ar    1  UNL1        0.0231
     12 C          -5.1109    3.0271   -1.2529 C.ar    1  UNL1        0.1239
     13 O          -6.3340    3.2358   -1.8866 O.3     1  UNL1       -0.5065
     14 C          -4.3791    4.1057   -0.7428 C.ar    1  UNL1        0.0223
     15 C          -3.1472    3.8955   -0.1056 C.ar    1  UNL1        0.1348
     16 O          -2.4394    4.9903    0.3920 O.3     1  UNL1       -0.5058
     17 C          -2.6396    2.5806    0.0236 C.ar    1  UNL1        0.1092
     18 C          -1.4079    2.2874    0.6430 C.ar    1  UNL1        0.2382
     19 O          -0.6832    3.2020    1.1216 O.2     1  UNL1       -0.2830
     20 C          -1.3983   -1.4894    0.2613 C.ar    1  UNL1        0.0213
     21 C          -1.6282   -2.3140   -0.8525 C.ar    1  UNL1       -0.0475
     22 C          -1.2449   -3.6583   -0.8295 C.ar    1  UNL1       -0.0195
     23 C          -0.6382   -4.1979    0.3084 C.ar    1  UNL1        0.1169
     24 O          -0.2536   -5.5366    0.3140 O.3     1  UNL1       -0.5068
     25 C          -0.4251   -3.3886    1.4315 C.ar    1  UNL1       -0.0195
     26 C          -0.8102   -2.0450    1.4128 C.ar    1  UNL1       -0.0475
     27 C           2.6234    0.2293    1.4747 C.3     1  UNL1        0.1454
     28 O           2.7085    1.1303    2.5502 O.3     1  UNL1       -0.3829
     29 C           3.9692    0.2190    0.7154 C.3     1  UNL1        0.1152
     30 O           4.7760   -0.8298    1.1880 O.3     1  UNL1       -0.3864
     31 C           3.7744    0.0689   -0.8111 C.3     1  UNL1        0.1120
     32 O           3.6677    1.3370   -1.4100 O.3     1  UNL1       -0.3865
     33 H           4.4833   -2.8542   -1.1051 H       1  UNL1        0.2095
     34 H           2.8403   -2.4398    0.2171 H       1  UNL1        0.0584
     35 H           1.6989   -2.7603   -1.1159 H       1  UNL1        0.0584
     36 H           2.3448   -0.6578   -2.2488 H       1  UNL1        0.0647
     37 H           1.6485    1.6492    0.1341 H       1  UNL1        0.1084
     38 H          -5.1829    0.8956   -1.5222 H       1  UNL1        0.0691
     39 H          -6.7231    4.1652   -1.9945 H       1  UNL1        0.2921
     40 H          -4.7685    5.1112   -0.8423 H       1  UNL1        0.0691
     41 H          -2.7916    5.9366    0.3058 H       1  UNL1        0.2922
     42 H          -2.0860   -1.9118   -1.7480 H       1  UNL1        0.0626
     43 H          -1.4150   -4.2801   -1.6992 H       1  UNL1        0.0654
     44 H           0.1894   -5.9567    1.1228 H       1  UNL1        0.2921
     45 H           0.0340   -3.8007    2.3211 H       1  UNL1        0.0654
     46 H          -0.6609   -1.4477    2.3028 H       1  UNL1        0.0626
     47 H           2.4132   -0.7967    1.8610 H       1  UNL1        0.0683
     48 H           2.0414    0.8420    3.2268 H       1  UNL1        0.2102
     49 H           4.5022    1.1833    0.8951 H       1  UNL1        0.0648
     50 H           5.0787   -0.5716    2.0978 H       1  UNL1        0.2100
     51 H           4.6606   -0.4481   -1.2485 H       1  UNL1        0.0647
     52 H           4.5850    1.7144   -1.4588 H       1  UNL1        0.2100
@<TRIPOS>BOND
     1     1     2    1
     2     2     3    1
     3     3     4    1
     4     4     5    1
     5     5     6    1
     6     6     7    1
     7     7     8   ar
     8     8     9   ar
     9     9    10   ar
    10    10    11   ar
    11    11    12   ar
    12    12    13    1
    13    12    14   ar
    14    14    15   ar
    15    15    16    1
    16    15    17   ar
    17    17    18   ar
    18    18    19    2
    19     8    20    1
    20    20    21   ar
    21    21    22   ar
    22    22    23   ar
    23    23    24    1
    24    23    25   ar
    25    25    26   ar
    26     5    27    1
    27    27    28    1
    28    27    29    1
    29    29    30    1
    30    29    31    1
    31    31    32    1
    32    31     3    1
    33    18     7   ar
    34    26    20   ar
    35    17    10   ar
    36     1    33    1
    37     2    34    1
    38     2    35    1
    39     3    36    1
    40     5    37    1
    41    11    38    1
    42    13    39    1
    43    14    40    1
    44    16    41    1
    45    21    42    1
    46    22    43    1
    47    24    44    1
    48    25    45    1
    49    26    46    1
    50    27    47    1
    51    28    48    1
    52    29    49    1
    53    30    50    1
    54    31    51    1
    55    32    52    1
