@<TRIPOS>MOLECULE
Kaempferol 3-O-rutinoside
 72 76 0 0 0
SMALL
GASTEIGER

@<TRIPOS>ATOM
      1 C           0.2280    2.4132   -0.2702 C.3     1  UNL1       -0.0361
      2 C           1.2992    2.0804   -1.3136 C.3     1  UNL1        0.0873
      3 O           1.6727    0.7082   -1.2228 O.3     1  UNL1       -0.3431
      4 C           2.7758    0.5104   -0.3529 C.3     1  UNL1        0.1885
      5 O           2.9582   -0.8754   -0.1336 O.3     1  UNL1       -0.3366
      6 C           1.9232   -1.4140    0.6789 C.3     1  UNL1        0.1519
      7 C           2.5019   -1.8022    2.0624 C.3     1  UNL1        0.1155
      8 O           1.5810   -1.4976    3.0796 O.3     1  UNL1       -0.3863
      9 C           2.8524   -3.3002    2.1428 C.3     1  UNL1        0.1120
     10 O           3.8924   -3.4720    3.0745 O.3     1  UNL1       -0.3865
     11 C           3.2829   -3.8197    0.7462 C.3     1  UNL1        0.1140
     12 C           3.7230   -5.2911    0.7943 C.3     1  UNL1        0.0731
     13 O           2.6440   -6.1254    1.1245 O.3     1  UNL1       -0.3924
     14 O           2.2758   -3.6923   -0.2550 O.3     1  UNL1       -0.3313
     15 C           1.3327   -2.6478   -0.0447 C.3     1  UNL1        0.2312
     16 O           0.2066   -3.1729    0.6663 O.3     1  UNL1       -0.4606
     17 C          -1.0508   -2.5562    0.7857 C.ar    1  UNL1        0.1310
     18 C          -1.9784   -3.1185    1.6673 C.ar    1  UNL1        0.0226
     19 C          -3.2440   -2.5423    1.8516 C.ar    1  UNL1        0.1348
     20 O          -4.1406   -3.1336    2.7425 O.3     1  UNL1       -0.5058
     21 C          -3.5925   -1.3714    1.1385 C.ar    1  UNL1        0.1092
     22 C          -4.8404   -0.7278    1.2706 C.ar    1  UNL1        0.2379
     23 O          -5.7278   -1.1872    2.0400 O.2     1  UNL1       -0.2830
     24 C          -5.1022    0.4377    0.5321 C.ar    1  UNL1        0.2082
     25 O          -6.3471    1.0671    0.6085 O.3     1  UNL1       -0.5007
     26 C          -4.0964    0.9478   -0.3119 C.ar    1  UNL1        0.1806
     27 O          -2.9432    0.2979   -0.4295 O.2     1  UNL1       -0.4507
     28 C          -2.6557   -0.8097    0.2429 C.ar    1  UNL1        0.1465
     29 C          -1.4070   -1.4067    0.0591 C.ar    1  UNL1        0.0235
     30 C          -4.2732    2.1921   -1.0955 C.ar    1  UNL1        0.0213
     31 C          -3.7545    2.2659   -2.3995 C.ar    1  UNL1       -0.0475
     32 C          -3.8759    3.4422   -3.1451 C.ar    1  UNL1       -0.0195
     33 C          -4.5019    4.5636   -2.5934 C.ar    1  UNL1        0.1169
     34 O          -4.6162    5.7290   -3.3479 O.3     1  UNL1       -0.5068
     35 C          -5.0026    4.5064   -1.2864 C.ar    1  UNL1       -0.0195
     36 C          -4.8827    3.3314   -0.5381 C.ar    1  UNL1       -0.0475
     37 C           4.0591    1.0854   -0.9895 C.3     1  UNL1        0.1341
     38 O           4.9909    1.3405    0.0326 O.3     1  UNL1       -0.3841
     39 C           3.7555    2.3765   -1.7980 C.3     1  UNL1        0.1140
     40 O           4.8439    3.2643   -1.7616 O.3     1  UNL1       -0.3864
     41 C           2.4977    3.0711   -1.2528 C.3     1  UNL1        0.1095
     42 O           2.2001    4.2122   -2.0174 O.3     1  UNL1       -0.3866
     43 H          -0.6330    1.7231   -0.3841 H       1  UNL1        0.0255
     44 H          -0.1349    3.4532   -0.4136 H       1  UNL1        0.0255
     45 H           0.6299    2.3117    0.7594 H       1  UNL1        0.0255
     46 H           0.8191    2.2017   -2.3099 H       1  UNL1        0.0621
     47 H           2.6092    1.0244    0.6267 H       1  UNL1        0.0938
     48 H           1.0884   -0.6923    0.8445 H       1  UNL1        0.0687
     49 H           3.4355   -1.2127    2.2316 H       1  UNL1        0.0648
     50 H           1.6081   -0.5131    3.2078 H       1  UNL1        0.2100
     51 H           1.9435   -3.8623    2.4685 H       1  UNL1        0.0647
     52 H           3.7181   -4.3202    3.5599 H       1  UNL1        0.2100
     53 H           4.1699   -3.2322    0.4183 H       1  UNL1        0.0647
     54 H           4.5730   -5.4319    1.5011 H       1  UNL1        0.0584
     55 H           4.0938   -5.5843   -0.2110 H       1  UNL1        0.0584
     56 H           2.6413   -6.2166    2.1127 H       1  UNL1        0.2095
     57 H           0.9978   -2.3295   -1.0545 H       1  UNL1        0.1084
     58 H          -1.7081   -4.0090    2.2212 H       1  UNL1        0.0691
     59 H          -3.9028   -3.9715    3.2606 H       1  UNL1        0.2922
     60 H          -7.0945    0.7213    1.1983 H       1  UNL1        0.2924
     61 H          -0.7240   -0.9553   -0.6459 H       1  UNL1        0.0691
     62 H          -3.2626    1.4093   -2.8442 H       1  UNL1        0.0626
     63 H          -3.4803    3.4831   -4.1520 H       1  UNL1        0.0654
     64 H          -5.0628    6.5590   -2.9757 H       1  UNL1        0.2921
     65 H          -5.4749    5.3751   -0.8455 H       1  UNL1        0.0654
     66 H          -5.2400    3.3260    0.4834 H       1  UNL1        0.0626
     67 H           4.4713    0.3267   -1.6980 H       1  UNL1        0.0671
     68 H           5.8951    1.2504   -0.3676 H       1  UNL1        0.2101
     69 H           3.5483    2.0936   -2.8582 H       1  UNL1        0.0648
     70 H           5.5404    2.8848   -2.3590 H       1  UNL1        0.2100
     71 H           2.6857    3.3651   -0.1915 H       1  UNL1        0.0646
     72 H           2.7854    4.9431   -1.6874 H       1  UNL1        0.2100
@<TRIPOS>BOND
     1     1     2    1
     2     2     3    1
     3     3     4    1
     4     4     5    1
     5     5     6    1
     6     6     7    1
     7     7     8    1
     8     7     9    1
     9     9    10    1
    10     9    11    1
    11    11    12    1
    12    12    13    1
    13    11    14    1
    14    14    15    1
    15    15    16    1
    16    16    17    1
    17    17    18   ar
    18    18    19   ar
    19    19    20    1
    20    19    21   ar
    21    21    22   ar
    22    22    23    2
    23    22    24   ar
    24    24    25    1
    25    24    26   ar
    26    26    27   ar
    27    27    28   ar
    28    28    29   ar
    29    26    30    1
    30    30    31   ar
    31    31    32   ar
    32    32    33   ar
    33    33    34    1
    34    33    35   ar
    35    35    36   ar
    36     4    37    1
    37    37    38    1
    38    37    39    1
    39    39    40    1
    40    39    41    1
    41    41    42    1
    42    41     2    1
    43    15     6    1
    44    29    17   ar
    45    36    30   ar
    46    28    21   ar
    47     1    43    1
    48     1    44    1
    49     1    45    1
    50     2    46    1
    51     4    47    1
    52     6    48    1
    53     7    49    1
    54     8    50    1
    55     9    51    1
    56    10    52    1
    57    11    53    1
    58    12    54    1
    59    12    55    1
    60    13    56    1
    61    15    57    1
    62    18    58    1
    63    20    59    1
    64    25    60    1
    65    29    61    1
    66    31    62    1
    67    32    63    1
    68    34    64    1
    69    35    65    1
    70    36    66    1
    71    37    67    1
    72    38    68    1
    73    39    69    1
    74    40    70    1
    75    41    71    1
    76    42    72    1
