@<TRIPOS>MOLECULE
Kaempferol 3-O-glucosyl-rhamnosyl-galactoside
 93 98 0 0 0
SMALL
GASTEIGER

@<TRIPOS>ATOM
      1 C           4.0587    2.2361    2.6591 C.3     1  UNL1        0.0873
      2 C           4.2894    0.7849    3.1167 C.3     1  UNL1       -0.0361
      3 O           2.6791    2.5428    2.5001 O.3     1  UNL1       -0.3431
      4 C           2.1080    1.9541    1.3428 C.3     1  UNL1        0.1879
      5 O           0.7310    2.2958    1.3378 O.3     1  UNL1       -0.3461
      6 C          -0.0939    1.2798    0.7873 C.3     1  UNL1        0.0796
      7 C          -1.1263    0.8223    1.8271 C.3     1  UNL1        0.1144
      8 O          -2.0286   -0.0794    1.2195 O.3     1  UNL1       -0.3313
      9 C          -3.2253   -0.1920    1.9812 C.3     1  UNL1        0.2311
     10 O          -3.9305   -1.3504    1.5392 O.3     1  UNL1       -0.4532
     11 C          -4.4401   -1.4595    0.2411 C.ar    1  UNL1        0.2138
     12 C          -5.5691   -0.7275   -0.1718 C.ar    1  UNL1        0.1809
     13 O          -5.9866   -0.8213   -1.4287 O.2     1  UNL1       -0.4507
     14 C          -5.4011   -1.5905   -2.3393 C.ar    1  UNL1        0.1465
     15 C          -5.9455   -1.6336   -3.6249 C.ar    1  UNL1        0.0231
     16 C          -5.3782   -2.4479   -4.6058 C.ar    1  UNL1        0.1239
     17 O          -5.9297   -2.5098   -5.8837 O.3     1  UNL1       -0.5065
     18 C          -4.2440   -3.2020   -4.3088 C.ar    1  UNL1        0.0223
     19 C          -3.6522   -3.1514   -3.0406 C.ar    1  UNL1        0.1348
     20 O          -2.4677   -3.8763   -2.8782 O.3     1  UNL1       -0.5058
     21 C          -4.2558   -2.3643   -2.0135 C.ar    1  UNL1        0.1092
     22 C          -3.8074   -2.3096   -0.6720 C.ar    1  UNL1        0.2382
     23 O          -2.8526   -3.0200   -0.2625 O.2     1  UNL1       -0.2830
     24 C          -6.3270    0.1466    0.7515 C.ar    1  UNL1        0.0213
     25 C          -6.6309   -0.2630    2.0629 C.ar    1  UNL1       -0.0475
     26 C          -7.3476    0.5794    2.9178 C.ar    1  UNL1       -0.0195
     27 C          -7.7837    1.8301    2.4707 C.ar    1  UNL1        0.1169
     28 O          -8.4953    2.6597    3.3343 O.3     1  UNL1       -0.5068
     29 C          -7.5048    2.2349    1.1588 C.ar    1  UNL1       -0.0195
     30 C          -6.7868    1.3952    0.3021 C.ar    1  UNL1       -0.0475
     31 C          -2.9802   -0.3123    3.5149 C.3     1  UNL1        0.1454
     32 O          -3.2467    0.9263    4.1248 O.3     1  UNL1       -0.3829
     33 C          -1.5262   -0.7395    3.8180 C.3     1  UNL1        0.1152
     34 O          -1.3488   -2.1059    3.5234 O.3     1  UNL1       -0.3864
     35 C          -0.4898    0.1548    3.0754 C.3     1  UNL1        0.1120
     36 O           0.6350   -0.6094    2.7178 O.3     1  UNL1       -0.3865
     37 C           2.7803    2.5184    0.0735 C.3     1  UNL1        0.1345
     38 O           2.2035    1.9574   -1.0787 O.3     1  UNL1       -0.3841
     39 C           4.2862    2.2042    0.0908 C.3     1  UNL1        0.1205
     40 O           4.4869    0.8056   -0.0688 O.3     1  UNL1       -0.3401
     41 C           4.9482    0.4604   -1.3637 C.3     1  UNL1        0.1884
     42 O           4.5220   -0.8611   -1.6311 O.3     1  UNL1       -0.3405
     43 C           4.6889   -1.1772   -3.0067 C.3     1  UNL1        0.1130
     44 C           4.3676   -2.6629   -3.2015 C.3     1  UNL1        0.0730
     45 O           3.0622   -2.9267   -2.7665 O.3     1  UNL1       -0.3924
     46 C           6.1256   -0.8461   -3.5329 C.3     1  UNL1        0.1119
     47 O           6.0777    0.2651   -4.3912 O.3     1  UNL1       -0.3865
     48 C           7.0914   -0.5460   -2.3708 C.3     1  UNL1        0.1141
     49 O           7.3524   -1.7443   -1.6831 O.3     1  UNL1       -0.3864
     50 C           6.4988    0.5056   -1.3926 C.3     1  UNL1        0.1341
     51 O           6.9610    1.7976   -1.7006 O.3     1  UNL1       -0.3841
     52 C           4.9143    2.6472    1.4283 C.3     1  UNL1        0.1098
     53 O           5.1461    4.0360    1.4262 O.3     1  UNL1       -0.3866
     54 H           4.4162    2.8594    3.5082 H       1  UNL1        0.0621
     55 H           4.1275    0.0523    2.3025 H       1  UNL1        0.0255
     56 H           5.3334    0.6667    3.4774 H       1  UNL1        0.0255
     57 H           3.6023    0.5431    3.9550 H       1  UNL1        0.0255
     58 H           2.2582    0.8529    1.3867 H       1  UNL1        0.0937
     59 H          -0.6479    1.7261   -0.0661 H       1  UNL1        0.0587
     60 H           0.4447    0.4004    0.3642 H       1  UNL1        0.0587
     61 H          -1.6641    1.7477    2.1479 H       1  UNL1        0.0647
     62 H          -3.8576    0.7023    1.7832 H       1  UNL1        0.1084
     63 H          -6.8227   -1.0417   -3.8564 H       1  UNL1        0.0691
     64 H          -6.7521   -1.9725   -6.1327 H       1  UNL1        0.2921
     65 H          -3.7971   -3.8138   -5.0830 H       1  UNL1        0.0691
     66 H          -1.7976   -3.7317   -2.1388 H       1  UNL1        0.2922
     67 H          -6.3272   -1.2375    2.4230 H       1  UNL1        0.0626
     68 H          -7.5699    0.2569    3.9270 H       1  UNL1        0.0654
     69 H          -8.8259    3.5713    3.0400 H       1  UNL1        0.2921
     70 H          -7.8430    3.1995    0.8024 H       1  UNL1        0.0654
     71 H          -6.5758    1.7266   -0.7074 H       1  UNL1        0.0626
     72 H          -3.6769   -1.0758    3.9367 H       1  UNL1        0.0683
     73 H          -3.3770    0.7507    5.0934 H       1  UNL1        0.2102
     74 H          -1.3521   -0.6260    4.9105 H       1  UNL1        0.0648
     75 H          -1.4478   -2.2256    2.5436 H       1  UNL1        0.2100
     76 H          -0.1700    0.9780    3.7577 H       1  UNL1        0.0647
     77 H           1.1574   -0.7558    3.5495 H       1  UNL1        0.2100
     78 H           2.6498    3.6268    0.0600 H       1  UNL1        0.0671
     79 H           1.4491    2.5449   -1.3454 H       1  UNL1        0.2101
     80 H           4.7747    2.8078   -0.7113 H       1  UNL1        0.0651
     81 H           4.5176    1.1441   -2.1393 H       1  UNL1        0.0938
     82 H           3.9336   -0.6110   -3.6004 H       1  UNL1        0.0647
     83 H           5.0884   -3.2801   -2.6191 H       1  UNL1        0.0584
     84 H           4.4560   -2.9248   -4.2802 H       1  UNL1        0.0584
     85 H           2.9153   -3.8978   -2.9092 H       1  UNL1        0.2095
     86 H           6.5504   -1.7080   -4.1017 H       1  UNL1        0.0647
     87 H           5.6816   -0.0496   -5.2458 H       1  UNL1        0.2100
     88 H           8.0469   -0.1615   -2.8012 H       1  UNL1        0.0648
     89 H           8.1927   -1.6069   -1.1720 H       1  UNL1        0.2100
     90 H           6.8716    0.2677   -0.3714 H       1  UNL1        0.0671
     91 H           6.6444    2.0245   -2.6128 H       1  UNL1        0.2101
     92 H           5.9122    2.1631    1.5146 H       1  UNL1        0.0646
     93 H           4.2685    4.4949    1.4855 H       1  UNL1        0.2100
@<TRIPOS>BOND
     1     1     2    1
     2     1     3    1
     3     3     4    1
     4     4     5    1
     5     5     6    1
     6     6     7    1
     7     7     8    1
     8     8     9    1
     9     9    10    1
    10    10    11    1
    11    11    12   ar
    12    12    13   ar
    13    13    14   ar
    14    14    15   ar
    15    15    16   ar
    16    16    17    1
    17    16    18   ar
    18    18    19   ar
    19    19    20    1
    20    19    21   ar
    21    21    22   ar
    22    22    23    2
    23    12    24    1
    24    24    25   ar
    25    25    26   ar
    26    26    27   ar
    27    27    28    1
    28    27    29   ar
    29    29    30   ar
    30     9    31    1
    31    31    32    1
    32    31    33    1
    33    33    34    1
    34    33    35    1
    35    35    36    1
    36     4    37    1
    37    37    38    1
    38    37    39    1
    39    39    40    1
    40    40    41    1
    41    41    42    1
    42    42    43    1
    43    43    44    1
    44    44    45    1
    45    43    46    1
    46    46    47    1
    47    46    48    1
    48    48    49    1
    49    48    50    1
    50    50    51    1
    51    39    52    1
    52    52    53    1
    53    52     1    1
    54    35     7    1
    55    50    41    1
    56    22    11   ar
    57    30    24   ar
    58    21    14   ar
    59     1    54    1
    60     2    55    1
    61     2    56    1
    62     2    57    1
    63     4    58    1
    64     6    59    1
    65     6    60    1
    66     7    61    1
    67     9    62    1
    68    15    63    1
    69    17    64    1
    70    18    65    1
    71    20    66    1
    72    25    67    1
    73    26    68    1
    74    28    69    1
    75    29    70    1
    76    30    71    1
    77    31    72    1
    78    32    73    1
    79    33    74    1
    80    34    75    1
    81    35    76    1
    82    36    77    1
    83    37    78    1
    84    38    79    1
    85    39    80    1
    86    41    81    1
    87    43    82    1
    88    44    83    1
    89    44    84    1
    90    45    85    1
    91    46    86    1
    92    47    87    1
    93    48    88    1
    94    49    89    1
    95    50    90    1
    96    51    91    1
    97    52    92    1
    98    53    93    1
