@<TRIPOS>MOLECULE
Kaempferol 3-O-glucosyl-rhamnosyl-glucoside
 93 98 0 0 0
SMALL
GASTEIGER

@<TRIPOS>ATOM
      1 C          -0.1547    0.0214    2.1406 C.3     1  UNL1        0.0873
      2 C           0.8742   -0.1490    3.2597 C.3     1  UNL1       -0.0361
      3 O           0.1899    1.1802    1.3945 O.3     1  UNL1       -0.3431
      4 C          -0.6565    1.3578    0.2679 C.3     1  UNL1        0.1879
      5 O          -0.5376    0.2451   -0.6094 O.3     1  UNL1       -0.3461
      6 C          -0.6499    0.6181   -1.9718 C.3     1  UNL1        0.0796
      7 C           0.7027    1.0919   -2.5379 C.3     1  UNL1        0.1144
      8 O           1.7303    0.2752   -1.9973 O.3     1  UNL1       -0.3313
      9 C           2.9683    0.5749   -2.6110 C.3     1  UNL1        0.2311
     10 O           4.0239    0.0100   -1.8354 O.3     1  UNL1       -0.4532
     11 C           4.2032    0.1687   -0.4466 C.ar    1  UNL1        0.2138
     12 C           4.9403   -0.8069    0.2488 C.ar    1  UNL1        0.1809
     13 O           5.1820   -0.6605    1.5453 O.2     1  UNL1       -0.4507
     14 C           4.7209    0.3528    2.2656 C.ar    1  UNL1        0.1465
     15 C           5.0425    0.4062    3.6239 C.ar    1  UNL1        0.0231
     16 C           4.5813    1.4522    4.4187 C.ar    1  UNL1        0.1239
     17 O           4.9260    1.4938    5.7679 O.3     1  UNL1       -0.5065
     18 C           3.7711    2.4431    3.8596 C.ar    1  UNL1        0.0223
     19 C           3.4057    2.3994    2.5088 C.ar    1  UNL1        0.1348
     20 O           2.5142    3.3848    2.0735 O.3     1  UNL1       -0.5058
     21 C           3.9192    1.3611    1.6732 C.ar    1  UNL1        0.1092
     22 C           3.7126    1.2806    0.2755 C.ar    1  UNL1        0.2382
     23 O           3.1475    2.2189   -0.3408 O.2     1  UNL1       -0.2830
     24 C           5.4773   -2.0095   -0.4269 C.ar    1  UNL1        0.0213
     25 C           4.6873   -2.7632   -1.3146 C.ar    1  UNL1       -0.0475
     26 C           5.2085   -3.9065   -1.9274 C.ar    1  UNL1       -0.0195
     27 C           6.5177   -4.3198   -1.6489 C.ar    1  UNL1        0.1169
     28 O           7.0480   -5.4567   -2.2546 O.3     1  UNL1       -0.5068
     29 C           7.2996   -3.5875   -0.7504 C.ar    1  UNL1       -0.0195
     30 C           6.7812   -2.4433   -0.1363 C.ar    1  UNL1       -0.0475
     31 C           2.9947   -0.0284   -4.0304 C.3     1  UNL1        0.1454
     32 O           3.8564    0.7339   -4.8366 O.3     1  UNL1       -0.3829
     33 C           1.5692   -0.0636   -4.6499 C.3     1  UNL1        0.1152
     34 O           0.9491   -1.2896   -4.3528 O.3     1  UNL1       -0.3864
     35 C           0.6927    1.0814   -4.1046 C.3     1  UNL1        0.1120
     36 O           1.1842    2.3025   -4.5968 O.3     1  UNL1       -0.3865
     37 C          -2.1202    1.5636    0.7106 C.3     1  UNL1        0.1345
     38 O          -2.2142    2.7666    1.4323 O.3     1  UNL1       -0.3841
     39 C          -2.5833    0.3772    1.5803 C.3     1  UNL1        0.1205
     40 O          -3.8594    0.6453    2.1409 O.3     1  UNL1       -0.3401
     41 C          -4.9162    0.1870    1.3133 C.3     1  UNL1        0.1884
     42 O          -6.0103    1.0664    1.4860 O.3     1  UNL1       -0.3405
     43 C          -6.9964    0.8485    0.4861 C.3     1  UNL1        0.1130
     44 C          -8.2138    1.7167    0.8247 C.3     1  UNL1        0.0730
     45 O          -9.1354    1.6882   -0.2307 O.3     1  UNL1       -0.3924
     46 C          -7.3965   -0.6600    0.3512 C.3     1  UNL1        0.1119
     47 O          -6.8935   -1.1835   -0.8516 O.3     1  UNL1       -0.3865
     48 C          -6.8544   -1.4905    1.5300 C.3     1  UNL1        0.1141
     49 O          -7.5751   -1.1497    2.6882 O.3     1  UNL1       -0.3864
     50 C          -5.3386   -1.2375    1.7582 C.3     1  UNL1        0.1341
     51 O          -4.5613   -2.2183    1.1164 O.3     1  UNL1       -0.3841
     52 C          -1.5828    0.1456    2.7205 C.3     1  UNL1        0.1098
     53 O          -1.9369   -1.0352    3.3972 O.3     1  UNL1       -0.3866
     54 H          -0.0877   -0.8905    1.5038 H       1  UNL1        0.0621
     55 H           0.6595   -1.0584    3.8592 H       1  UNL1        0.0255
     56 H           1.8851   -0.2672    2.8198 H       1  UNL1        0.0255
     57 H           0.8754    0.7393    3.9270 H       1  UNL1        0.0255
     58 H          -0.3235    2.3029   -0.2190 H       1  UNL1        0.0937
     59 H          -1.4344    1.3908   -2.1413 H       1  UNL1        0.0587
     60 H          -0.9755   -0.2870   -2.5274 H       1  UNL1        0.0587
     61 H           0.8549    2.1357   -2.1807 H       1  UNL1        0.0647
     62 H           3.1349    1.6754   -2.6839 H       1  UNL1        0.1084
     63 H           5.6608   -0.3676    4.0624 H       1  UNL1        0.0691
     64 H           4.6042    2.2391    6.3745 H       1  UNL1        0.2921
     65 H           3.3933    3.2407    4.4874 H       1  UNL1        0.0691
     66 H           1.9498    3.3244    1.2397 H       1  UNL1        0.2922
     67 H           3.6616   -2.4826   -1.5183 H       1  UNL1        0.0626
     68 H           4.5911   -4.4748   -2.6114 H       1  UNL1        0.0654
     69 H           6.5064   -6.0093   -2.9089 H       1  UNL1        0.2921
     70 H           8.3098   -3.9060   -0.5267 H       1  UNL1        0.0654
     71 H           7.4021   -1.8886    0.5567 H       1  UNL1        0.0626
     72 H           3.3850   -1.0724   -3.9639 H       1  UNL1        0.0683
     73 H           4.0867    0.1722   -5.6224 H       1  UNL1        0.2102
     74 H           1.6351    0.0470   -5.7586 H       1  UNL1        0.0648
     75 H           1.3479   -1.9685   -4.9578 H       1  UNL1        0.2100
     76 H          -0.3419    0.9344   -4.4973 H       1  UNL1        0.0647
     77 H           0.4674    2.9757   -4.4587 H       1  UNL1        0.2100
     78 H          -2.7600    1.6244   -0.1995 H       1  UNL1        0.0671
     79 H          -3.1601    3.0637    1.3793 H       1  UNL1        0.2101
     80 H          -2.5839   -0.5479    0.9545 H       1  UNL1        0.0651
     81 H          -4.6179    0.1839    0.2333 H       1  UNL1        0.0938
     82 H          -6.6030    1.2234   -0.4877 H       1  UNL1        0.0647
     83 H          -7.8785    2.7653    0.9904 H       1  UNL1        0.0584
     84 H          -8.6920    1.3473    1.7599 H       1  UNL1        0.0584
     85 H          -9.8995    2.2528    0.0561 H       1  UNL1        0.2095
     86 H          -8.5062   -0.7806    0.3471 H       1  UNL1        0.0647
     87 H          -7.4588   -0.8179   -1.5817 H       1  UNL1        0.2100
     88 H          -7.0246   -2.5703    1.3039 H       1  UNL1        0.0648
     89 H          -7.4525   -1.8938    3.3342 H       1  UNL1        0.2100
     90 H          -5.1384   -1.3342    2.8486 H       1  UNL1        0.0671
     91 H          -4.7348   -2.1548    0.1419 H       1  UNL1        0.2101
     92 H          -1.6236    1.0231    3.4117 H       1  UNL1        0.0646
     93 H          -1.7487   -0.8896    4.3610 H       1  UNL1        0.2100
@<TRIPOS>BOND
     1     1     2    1
     2     1     3    1
     3     3     4    1
     4     4     5    1
     5     5     6    1
     6     6     7    1
     7     7     8    1
     8     8     9    1
     9     9    10    1
    10    10    11    1
    11    11    12   ar
    12    12    13   ar
    13    13    14   ar
    14    14    15   ar
    15    15    16   ar
    16    16    17    1
    17    16    18   ar
    18    18    19   ar
    19    19    20    1
    20    19    21   ar
    21    21    22   ar
    22    22    23    2
    23    12    24    1
    24    24    25   ar
    25    25    26   ar
    26    26    27   ar
    27    27    28    1
    28    27    29   ar
    29    29    30   ar
    30     9    31    1
    31    31    32    1
    32    31    33    1
    33    33    34    1
    34    33    35    1
    35    35    36    1
    36     4    37    1
    37    37    38    1
    38    37    39    1
    39    39    40    1
    40    40    41    1
    41    41    42    1
    42    42    43    1
    43    43    44    1
    44    44    45    1
    45    43    46    1
    46    46    47    1
    47    46    48    1
    48    48    49    1
    49    48    50    1
    50    50    51    1
    51    39    52    1
    52    52    53    1
    53    52     1    1
    54    35     7    1
    55    50    41    1
    56    22    11   ar
    57    30    24   ar
    58    21    14   ar
    59     1    54    1
    60     2    55    1
    61     2    56    1
    62     2    57    1
    63     4    58    1
    64     6    59    1
    65     6    60    1
    66     7    61    1
    67     9    62    1
    68    15    63    1
    69    17    64    1
    70    18    65    1
    71    20    66    1
    72    25    67    1
    73    26    68    1
    74    28    69    1
    75    29    70    1
    76    30    71    1
    77    31    72    1
    78    32    73    1
    79    33    74    1
    80    34    75    1
    81    35    76    1
    82    36    77    1
    83    37    78    1
    84    38    79    1
    85    39    80    1
    86    41    81    1
    87    43    82    1
    88    44    83    1
    89    44    84    1
    90    45    85    1
    91    46    86    1
    92    47    87    1
    93    48    88    1
    94    49    89    1
    95    50    90    1
    96    51    91    1
    97    52    92    1
    98    53    93    1
