@<TRIPOS>MOLECULE
Quercetin 3-O-glucosyl-rhamnosyl-galactoside
 94 99 0 0 0
SMALL
GASTEIGER

@<TRIPOS>ATOM
      1 C          -0.3710    5.9994   -2.2734 C.3     1  UNL1       -0.0361
      2 C          -0.9062    4.5972   -1.9780 C.3     1  UNL1        0.0873
      3 O          -1.8983    4.2911   -2.9479 O.3     1  UNL1       -0.3431
      4 C          -2.3821    2.9627   -2.8138 C.3     1  UNL1        0.1879
      5 O          -1.3244    2.0337   -3.0169 O.3     1  UNL1       -0.3461
      6 C          -1.8008    0.8418   -3.6126 C.3     1  UNL1        0.0796
      7 C          -0.6751   -0.2024   -3.6387 C.3     1  UNL1        0.1144
      8 O          -0.1248   -0.2839   -2.3287 O.3     1  UNL1       -0.3313
      9 C           0.7553   -1.3850   -2.2006 C.3     1  UNL1        0.2311
     10 O           1.4888   -1.2022   -0.9854 O.3     1  UNL1       -0.4532
     11 C           2.5507   -1.9773   -0.4750 C.ar    1  UNL1        0.2138
     12 C           2.8704   -1.8455    0.8925 C.ar    1  UNL1        0.1810
     13 O           3.7461   -2.6712    1.4559 O.2     1  UNL1       -0.4507
     14 C           4.4069   -3.6033    0.7831 C.ar    1  UNL1        0.1465
     15 C           5.2963   -4.4352    1.4694 C.ar    1  UNL1        0.0231
     16 C           6.0299   -5.4060    0.7804 C.ar    1  UNL1        0.1239
     17 O           6.9188   -6.2375    1.4581 O.3     1  UNL1       -0.5065
     18 C           5.8738   -5.5445   -0.6002 C.ar    1  UNL1        0.0223
     19 C           4.9833   -4.7217   -1.3058 C.ar    1  UNL1        0.1348
     20 O           4.8449   -4.8920   -2.6840 O.3     1  UNL1       -0.5058
     21 C           4.2341   -3.7390   -0.6126 C.ar    1  UNL1        0.1092
     22 C           3.3140   -2.8794   -1.2491 C.ar    1  UNL1        0.2382
     23 O           3.2049   -2.8921   -2.5029 O.2     1  UNL1       -0.2830
     24 C           2.2815   -0.7811    1.7389 C.ar    1  UNL1        0.0247
     25 C           2.1692    0.5387    1.2642 C.ar    1  UNL1       -0.0057
     26 C           1.7340    1.5676    2.1110 C.ar    1  UNL1        0.1589
     27 O           1.6305    2.8719    1.6307 O.3     1  UNL1       -0.5033
     28 C           1.4127    1.2822    3.4481 C.ar    1  UNL1        0.1583
     29 O           0.9897    2.2869    4.3174 O.3     1  UNL1       -0.5033
     30 C           1.5191   -0.0293    3.9222 C.ar    1  UNL1       -0.0159
     31 C           1.9574   -1.0533    3.0774 C.ar    1  UNL1       -0.0473
     32 C          -0.0727   -2.7032   -2.1595 C.3     1  UNL1        0.1454
     33 O           0.6973   -3.7615   -2.6661 O.3     1  UNL1       -0.3829
     34 C          -1.3772   -2.5778   -2.9930 C.3     1  UNL1        0.1152
     35 O          -2.4258   -2.1166   -2.1787 O.3     1  UNL1       -0.3864
     36 C          -1.1533   -1.5977   -4.1645 C.3     1  UNL1        0.1120
     37 O          -2.2679   -1.5180   -5.0229 O.3     1  UNL1       -0.3865
     38 C          -3.0522    2.7629   -1.4322 C.3     1  UNL1        0.1345
     39 O          -4.1957    3.5751   -1.3375 O.3     1  UNL1       -0.3841
     40 C          -2.0699    3.1210   -0.3071 C.3     1  UNL1        0.1205
     41 O          -2.7610    3.1040    0.9348 O.3     1  UNL1       -0.3401
     42 C          -2.2518    2.1065    1.7989 C.3     1  UNL1        0.1884
     43 O          -2.4646    0.8258    1.2259 O.3     1  UNL1       -0.3405
     44 C          -1.8460   -0.1770    2.0125 C.3     1  UNL1        0.1130
     45 C          -1.9020   -1.4932    1.2316 C.3     1  UNL1        0.0730
     46 O          -1.0627   -2.4483    1.8205 O.3     1  UNL1       -0.3924
     47 C          -2.5576   -0.2851    3.3839 C.3     1  UNL1        0.1119
     48 O          -1.9117   -1.2341    4.1954 O.3     1  UNL1       -0.3865
     49 C          -2.5242    1.0810    4.0950 C.3     1  UNL1        0.1141
     50 O          -3.3557    1.0558    5.2265 O.3     1  UNL1       -0.3864
     51 C          -2.9994    2.1951    3.1432 C.3     1  UNL1        0.1341
     52 O          -2.8313    3.4615    3.7315 O.3     1  UNL1       -0.3841
     53 C          -1.4910    4.5215   -0.5473 C.3     1  UNL1        0.1098
     54 O          -0.4853    4.7641    0.4041 O.3     1  UNL1       -0.3866
     55 H           0.4712    6.2489   -1.5940 H       1  UNL1        0.0255
     56 H           0.0047    6.0441   -3.3178 H       1  UNL1        0.0255
     57 H          -1.1753    6.7565   -2.1533 H       1  UNL1        0.0255
     58 H          -0.0427    3.8983   -2.0669 H       1  UNL1        0.0621
     59 H          -3.1738    2.8483   -3.5924 H       1  UNL1        0.0937
     60 H          -2.1243    1.0493   -4.6578 H       1  UNL1        0.0587
     61 H          -2.6570    0.4262   -3.0378 H       1  UNL1        0.0587
     62 H           0.1069    0.1870   -4.3303 H       1  UNL1        0.0647
     63 H           1.4660   -1.3813   -3.0571 H       1  UNL1        0.1084
     64 H           5.4214   -4.3214    2.5392 H       1  UNL1        0.0691
     65 H           7.0559   -6.1625    2.4594 H       1  UNL1        0.2921
     66 H           6.4461   -6.2981   -1.1268 H       1  UNL1        0.0691
     67 H           5.3731   -5.5930   -3.1905 H       1  UNL1        0.2922
     68 H           2.4625    0.7830    0.2512 H       1  UNL1        0.0662
     69 H           1.8523    3.1025    0.6692 H       1  UNL1        0.2923
     70 H           0.8868    3.2490    4.0179 H       1  UNL1        0.2923
     71 H           1.2693   -0.2539    4.9513 H       1  UNL1        0.0655
     72 H           2.0510   -2.0581    3.4707 H       1  UNL1        0.0626
     73 H          -0.3366   -2.9209   -1.0988 H       1  UNL1        0.0683
     74 H           0.2991   -4.6023   -2.3186 H       1  UNL1        0.2102
     75 H          -1.6546   -3.5713   -3.4189 H       1  UNL1        0.0648
     76 H          -2.7291   -2.8903   -1.6353 H       1  UNL1        0.2100
     77 H          -0.3227   -2.0186   -4.7744 H       1  UNL1        0.0647
     78 H          -3.0844   -1.4095   -4.4707 H       1  UNL1        0.2100
     79 H          -3.3488    1.6980   -1.2992 H       1  UNL1        0.0671
     80 H          -4.9087    3.1302   -1.8662 H       1  UNL1        0.2101
     81 H          -1.2190    2.3943   -0.3549 H       1  UNL1        0.0651
     82 H          -1.1651    2.2974    1.9757 H       1  UNL1        0.0938
     83 H          -0.7702    0.0605    2.1624 H       1  UNL1        0.0647
     84 H          -2.9482   -1.8714    1.1881 H       1  UNL1        0.0584
     85 H          -1.5532   -1.2967    0.1952 H       1  UNL1        0.0584
     86 H          -1.1675   -3.2760    1.2835 H       1  UNL1        0.2095
     87 H          -3.6267   -0.5656    3.2183 H       1  UNL1        0.0647
     88 H          -2.4187   -2.0837    4.1141 H       1  UNL1        0.2100
     89 H          -1.4757    1.3008    4.4031 H       1  UNL1        0.0648
     90 H          -2.8570    0.5790    5.9404 H       1  UNL1        0.2100
     91 H          -4.0850    2.0507    2.9452 H       1  UNL1        0.0671
     92 H          -1.8590    3.5993    3.8797 H       1  UNL1        0.2101
     93 H          -2.3154    5.2689   -0.4450 H       1  UNL1        0.0646
     94 H          -0.5158    5.7317    0.6237 H       1  UNL1        0.2100
@<TRIPOS>BOND
     1     1     2    1
     2     2     3    1
     3     3     4    1
     4     4     5    1
     5     5     6    1
     6     6     7    1
     7     7     8    1
     8     8     9    1
     9     9    10    1
    10    10    11    1
    11    11    12   ar
    12    12    13   ar
    13    13    14   ar
    14    14    15   ar
    15    15    16   ar
    16    16    17    1
    17    16    18   ar
    18    18    19   ar
    19    19    20    1
    20    19    21   ar
    21    21    22   ar
    22    22    23    2
    23    12    24    1
    24    24    25   ar
    25    25    26   ar
    26    26    27    1
    27    26    28   ar
    28    28    29    1
    29    28    30   ar
    30    30    31   ar
    31     9    32    1
    32    32    33    1
    33    32    34    1
    34    34    35    1
    35    34    36    1
    36    36    37    1
    37     4    38    1
    38    38    39    1
    39    38    40    1
    40    40    41    1
    41    41    42    1
    42    42    43    1
    43    43    44    1
    44    44    45    1
    45    45    46    1
    46    44    47    1
    47    47    48    1
    48    47    49    1
    49    49    50    1
    50    49    51    1
    51    51    52    1
    52    40    53    1
    53    53    54    1
    54    53     2    1
    55    36     7    1
    56    51    42    1
    57    22    11   ar
    58    31    24   ar
    59    21    14   ar
    60     1    55    1
    61     1    56    1
    62     1    57    1
    63     2    58    1
    64     4    59    1
    65     6    60    1
    66     6    61    1
    67     7    62    1
    68     9    63    1
    69    15    64    1
    70    17    65    1
    71    18    66    1
    72    20    67    1
    73    25    68    1
    74    27    69    1
    75    29    70    1
    76    30    71    1
    77    31    72    1
    78    32    73    1
    79    33    74    1
    80    34    75    1
    81    35    76    1
    82    36    77    1
    83    37    78    1
    84    38    79    1
    85    39    80    1
    86    40    81    1
    87    42    82    1
    88    44    83    1
    89    45    84    1
    90    45    85    1
    91    46    86    1
    92    47    87    1
    93    48    88    1
    94    49    89    1
    95    50    90    1
    96    51    91    1
    97    52    92    1
    98    53    93    1
    99    54    94    1
