@<TRIPOS>MOLECULE
Quercetin 3-O-glucosyl-rhamnosyl-glucoside
 94 99 0 0 0
SMALL
GASTEIGER

@<TRIPOS>ATOM
      1 C          -1.2361   -1.6608    1.5161 C.3     1  UNL1        0.0873
      2 C          -0.6106   -2.9089    2.1406 C.3     1  UNL1       -0.0361
      3 O          -1.4372   -0.7047    2.5450 O.3     1  UNL1       -0.3431
      4 C          -1.8766    0.5421    2.0253 C.3     1  UNL1        0.1879
      5 O          -0.9136    1.0854    1.1289 O.3     1  UNL1       -0.3461
      6 C          -0.0190    1.9711    1.7805 C.3     1  UNL1        0.0796
      7 C           0.9863    1.2272    2.6840 C.3     1  UNL1        0.1144
      8 O           1.5288    0.0981    1.9991 O.3     1  UNL1       -0.3313
      9 C           2.8304    0.3071    1.4827 C.3     1  UNL1        0.2311
     10 O           2.8270    1.3887    0.5433 O.3     1  UNL1       -0.4532
     11 C           3.8603    1.5911   -0.3798 C.ar    1  UNL1        0.2138
     12 C           4.0779    0.7028   -1.4480 C.ar    1  UNL1        0.1810
     13 O           5.1141    0.8880   -2.2567 O.2     1  UNL1       -0.4507
     14 C           5.9667    1.8984   -2.1319 C.ar    1  UNL1        0.1465
     15 C           7.0067    2.0113   -3.0575 C.ar    1  UNL1        0.0231
     16 C           7.9057    3.0721   -2.9845 C.ar    1  UNL1        0.1239
     17 O           8.9230    3.1768   -3.9307 O.3     1  UNL1       -0.5065
     18 C           7.7841    4.0157   -1.9617 C.ar    1  UNL1        0.0223
     19 C           6.7757    3.9090   -0.9958 C.ar    1  UNL1        0.1348
     20 O           6.7996    4.8536    0.0349 O.3     1  UNL1       -0.5058
     21 C           5.8168    2.8557   -1.0934 C.ar    1  UNL1        0.1092
     22 C           4.7023    2.6989   -0.2348 C.ar    1  UNL1        0.2382
     23 O           4.4323    3.5406    0.6610 O.2     1  UNL1       -0.2830
     24 C           3.1665   -0.4257   -1.7281 C.ar    1  UNL1        0.0247
     25 C           1.7736   -0.2393   -1.7527 C.ar    1  UNL1       -0.0057
     26 C           0.9202   -1.3026   -2.0653 C.ar    1  UNL1        0.1589
     27 O          -0.4535   -1.0749   -2.1180 O.3     1  UNL1       -0.5033
     28 C           1.4554   -2.5733   -2.3347 C.ar    1  UNL1        0.1583
     29 O           0.6082   -3.6413   -2.6254 O.3     1  UNL1       -0.5033
     30 C           2.8443   -2.7598   -2.3154 C.ar    1  UNL1       -0.0159
     31 C           3.6953   -1.6894   -2.0282 C.ar    1  UNL1       -0.0473
     32 C           3.8529    0.5493    2.6249 C.3     1  UNL1        0.1454
     33 O           4.3464   -0.6722    3.1175 O.3     1  UNL1       -0.3829
     34 C           3.2483    1.3875    3.7807 C.3     1  UNL1        0.1152
     35 O           4.2237    2.2222    4.3554 O.3     1  UNL1       -0.3864
     36 C           2.0340    2.1983    3.2966 C.3     1  UNL1        0.1120
     37 O           1.4538    2.8904    4.3736 O.3     1  UNL1       -0.3865
     38 C          -3.2379    0.3969    1.3092 C.3     1  UNL1        0.1345
     39 O          -4.2785    0.1835    2.2338 O.3     1  UNL1       -0.3841
     40 C          -3.1976   -0.7215    0.2425 C.3     1  UNL1        0.1205
     41 O          -4.5105   -1.0167   -0.2068 O.3     1  UNL1       -0.3401
     42 C          -4.9116   -0.1918   -1.2919 C.3     1  UNL1        0.1884
     43 O          -6.2680    0.2021   -1.1374 O.3     1  UNL1       -0.3405
     44 C          -7.2093   -0.8594   -1.2617 C.3     1  UNL1        0.1130
     45 C          -7.2756   -1.7639   -0.0145 C.3     1  UNL1        0.0730
     46 O          -7.2896   -0.9758    1.1439 O.3     1  UNL1       -0.3924
     47 C          -7.0830   -1.6421   -2.5910 C.3     1  UNL1        0.1119
     48 O          -7.5755   -0.8438   -3.6378 O.3     1  UNL1       -0.3865
     49 C          -5.6270   -2.0578   -2.8871 C.3     1  UNL1        0.1141
     50 O          -5.2578   -3.1507   -2.0860 O.3     1  UNL1       -0.3864
     51 C          -4.6518   -0.8948   -2.6454 C.3     1  UNL1        0.1341
     52 O          -4.6878    0.0203   -3.7150 O.3     1  UNL1       -0.3841
     53 C          -2.5718   -2.0024    0.8238 C.3     1  UNL1        0.1098
     54 O          -2.3422   -2.9253   -0.2104 O.3     1  UNL1       -0.3866
     55 H          -0.5090   -1.2853    0.7600 H       1  UNL1        0.0621
     56 H          -1.2983   -3.3553    2.8903 H       1  UNL1        0.0255
     57 H          -0.3814   -3.6643    1.3592 H       1  UNL1        0.0255
     58 H           0.3394   -2.6363    2.6479 H       1  UNL1        0.0255
     59 H          -2.0641    1.2175    2.8932 H       1  UNL1        0.0937
     60 H           0.5406    2.5127    0.9900 H       1  UNL1        0.0587
     61 H          -0.5627    2.7555    2.3547 H       1  UNL1        0.0587
     62 H           0.4132    0.8154    3.5426 H       1  UNL1        0.0647
     63 H           3.1227   -0.6231    0.9512 H       1  UNL1        0.1084
     64 H           7.1065    1.2777   -3.8483 H       1  UNL1        0.0691
     65 H           9.5948    3.9351   -3.9051 H       1  UNL1        0.2921
     66 H           8.4994    4.8265   -1.8963 H       1  UNL1        0.0691
     67 H           6.3284    4.7553    0.9208 H       1  UNL1        0.2922
     68 H           1.3486    0.7379   -1.5579 H       1  UNL1        0.0662
     69 H          -1.1091   -1.8045   -2.3689 H       1  UNL1        0.2923
     70 H           0.9700   -4.5670   -2.8233 H       1  UNL1        0.2923
     71 H           3.2660   -3.7335   -2.5299 H       1  UNL1        0.0655
     72 H           4.7666   -1.8502   -2.0251 H       1  UNL1        0.0626
     73 H           4.7202    1.0937    2.1946 H       1  UNL1        0.0683
     74 H           3.5675   -1.2152    3.4098 H       1  UNL1        0.2102
     75 H           2.8874    0.7004    4.5785 H       1  UNL1        0.0648
     76 H           4.4891    2.8917    3.6714 H       1  UNL1        0.2100
     77 H           2.3661    2.9277    2.5205 H       1  UNL1        0.0647
     78 H           1.9997    3.7063    4.5216 H       1  UNL1        0.2100
     79 H          -3.4505    1.3602    0.7977 H       1  UNL1        0.0671
     80 H          -4.0459   -0.6081    2.7841 H       1  UNL1        0.2101
     81 H          -2.5362   -0.3906   -0.5935 H       1  UNL1        0.0651
     82 H          -4.3339    0.7621   -1.3142 H       1  UNL1        0.0938
     83 H          -8.2077   -0.3688   -1.2966 H       1  UNL1        0.0647
     84 H          -6.4267   -2.4765    0.0231 H       1  UNL1        0.0584
     85 H          -8.2096   -2.3683   -0.0569 H       1  UNL1        0.0584
     86 H          -7.3117   -1.6083    1.9084 H       1  UNL1        0.2095
     87 H          -7.7157   -2.5588   -2.5205 H       1  UNL1        0.0647
     88 H          -7.7665   -1.4503   -4.4006 H       1  UNL1        0.2100
     89 H          -5.5422   -2.3605   -3.9578 H       1  UNL1        0.0648
     90 H          -5.7072   -3.9516   -2.4633 H       1  UNL1        0.2100
     91 H          -3.6227   -1.3144   -2.6243 H       1  UNL1        0.0671
     92 H          -5.5030    0.5773   -3.6229 H       1  UNL1        0.2101
     93 H          -3.2618   -2.4458    1.5808 H       1  UNL1        0.0646
     94 H          -3.1983   -3.4016   -0.3677 H       1  UNL1        0.2100
@<TRIPOS>BOND
     1     1     2    1
     2     1     3    1
     3     3     4    1
     4     4     5    1
     5     5     6    1
     6     6     7    1
     7     7     8    1
     8     8     9    1
     9     9    10    1
    10    10    11    1
    11    11    12   ar
    12    12    13   ar
    13    13    14   ar
    14    14    15   ar
    15    15    16   ar
    16    16    17    1
    17    16    18   ar
    18    18    19   ar
    19    19    20    1
    20    19    21   ar
    21    21    22   ar
    22    22    23    2
    23    12    24    1
    24    24    25   ar
    25    25    26   ar
    26    26    27    1
    27    26    28   ar
    28    28    29    1
    29    28    30   ar
    30    30    31   ar
    31     9    32    1
    32    32    33    1
    33    32    34    1
    34    34    35    1
    35    34    36    1
    36    36    37    1
    37     4    38    1
    38    38    39    1
    39    38    40    1
    40    40    41    1
    41    41    42    1
    42    42    43    1
    43    43    44    1
    44    44    45    1
    45    45    46    1
    46    44    47    1
    47    47    48    1
    48    47    49    1
    49    49    50    1
    50    49    51    1
    51    51    52    1
    52    40    53    1
    53    53    54    1
    54    53     1    1
    55    36     7    1
    56    51    42    1
    57    22    11   ar
    58    31    24   ar
    59    21    14   ar
    60     1    55    1
    61     2    56    1
    62     2    57    1
    63     2    58    1
    64     4    59    1
    65     6    60    1
    66     6    61    1
    67     7    62    1
    68     9    63    1
    69    15    64    1
    70    17    65    1
    71    18    66    1
    72    20    67    1
    73    25    68    1
    74    27    69    1
    75    29    70    1
    76    30    71    1
    77    31    72    1
    78    32    73    1
    79    33    74    1
    80    34    75    1
    81    35    76    1
    82    36    77    1
    83    37    78    1
    84    38    79    1
    85    39    80    1
    86    40    81    1
    87    42    82    1
    88    44    83    1
    89    45    84    1
    90    45    85    1
    91    46    86    1
    92    47    87    1
    93    48    88    1
    94    49    89    1
    95    50    90    1
    96    51    91    1
    97    52    92    1
    98    53    93    1
    99    54    94    1
