@<TRIPOS>MOLECULE
Rhamnetin
 35 37 0 0 0
SMALL
GASTEIGER

@<TRIPOS>ATOM
      1 C           4.9781    0.0485    2.4118 C.3     1  UNL1        0.0788
      2 O           4.9796   -0.4373    1.0733 O.3     1  UNL1       -0.4949
      3 C           3.8379   -0.5340    0.2636 C.ar    1  UNL1        0.1271
      4 C           3.9863   -1.0303   -1.0345 C.ar    1  UNL1        0.0225
      5 C           2.8842   -1.1504   -1.8931 C.ar    1  UNL1        0.1348
      6 O           3.0745   -1.6496   -3.1824 O.3     1  UNL1       -0.5058
      7 C           1.5992   -0.7655   -1.4439 C.ar    1  UNL1        0.1092
      8 C           0.4443   -0.8472   -2.2489 C.ar    1  UNL1        0.2379
      9 O           0.5093   -1.2737   -3.4340 O.2     1  UNL1       -0.2830
     10 C          -0.7943   -0.4411   -1.7285 C.ar    1  UNL1        0.2082
     11 O          -1.9448   -0.4655   -2.5211 O.3     1  UNL1       -0.5007
     12 C          -0.8552    0.0215   -0.3999 C.ar    1  UNL1        0.1807
     13 O           0.2576    0.0986    0.3242 O.2     1  UNL1       -0.4507
     14 C           1.4514   -0.2660   -0.1297 C.ar    1  UNL1        0.1465
     15 C           2.5620   -0.1518    0.7117 C.ar    1  UNL1        0.0233
     16 C          -2.1265    0.4495    0.2269 C.ar    1  UNL1        0.0247
     17 C          -3.3091   -0.2951    0.0678 C.ar    1  UNL1       -0.0057
     18 C          -4.4963    0.1117    0.6878 C.ar    1  UNL1        0.1589
     19 O          -5.6513   -0.6476    0.5031 O.3     1  UNL1       -0.5033
     20 C          -4.5077    1.2676    1.4863 C.ar    1  UNL1        0.1583
     21 O          -5.6878    1.6804    2.1029 O.3     1  UNL1       -0.5033
     22 C          -3.3267    2.0002    1.6636 C.ar    1  UNL1       -0.0159
     23 C          -2.1431    1.5899    1.0451 C.ar    1  UNL1       -0.0473
     24 H           6.0126    0.0150    2.8107 H       1  UNL1        0.0660
     25 H           4.6215    1.0999    2.4361 H       1  UNL1        0.0660
     26 H           4.3306   -0.5901    3.0491 H       1  UNL1        0.0660
     27 H           4.9699   -1.3250   -1.3789 H       1  UNL1        0.0691
     28 H           3.9896   -1.9287   -3.5164 H       1  UNL1        0.2922
     29 H          -1.9345   -0.7834   -3.4828 H       1  UNL1        0.2924
     30 H           2.4192    0.2343    1.7122 H       1  UNL1        0.0691
     31 H          -3.3100   -1.2069   -0.5159 H       1  UNL1        0.0662
     32 H          -6.5344   -0.3968    0.9313 H       1  UNL1        0.2923
     33 H          -5.7207    2.5095    2.6846 H       1  UNL1        0.2923
     34 H          -3.3246    2.8884    2.2826 H       1  UNL1        0.0655
     35 H          -1.2411    2.1708    1.1952 H       1  UNL1        0.0626
@<TRIPOS>BOND
     1     1     2    1
     2     2     3    1
     3     3     4   ar
     4     4     5   ar
     5     5     6    1
     6     5     7   ar
     7     7     8   ar
     8     8     9    2
     9     8    10   ar
    10    10    11    1
    11    10    12   ar
    12    12    13   ar
    13    13    14   ar
    14    14    15   ar
    15    12    16    1
    16    16    17   ar
    17    17    18   ar
    18    18    19    1
    19    18    20   ar
    20    20    21    1
    21    20    22   ar
    22    22    23   ar
    23    15     3   ar
    24    23    16   ar
    25    14     7   ar
    26     1    24    1
    27     1    25    1
    28     1    26    1
    29     4    27    1
    30     6    28    1
    31    11    29    1
    32    15    30    1
    33    17    31    1
    34    19    32    1
    35    21    33    1
    36    22    34    1
    37    23    35    1
