@<TRIPOS>MOLECULE
Isorhamnetin 3-O-glucoside
 56 59 0 0 0
SMALL
GASTEIGER

@<TRIPOS>ATOM
      1 C           2.9954    3.6708    0.5471 C.3     1  UNL1        0.0790
      2 O           2.1696    3.4092    1.6771 O.3     1  UNL1       -0.4914
      3 C           1.5186    2.1896    1.9218 C.ar    1  UNL1        0.1619
      4 C           0.6921    2.0766    3.0548 C.ar    1  UNL1        0.1585
      5 O           0.5212    3.1476    3.9317 O.3     1  UNL1       -0.5033
      6 C           0.0236    0.8771    3.3170 C.ar    1  UNL1       -0.0159
      7 C           0.1580   -0.2107    2.4532 C.ar    1  UNL1       -0.0473
      8 C           0.9705   -0.1116    1.3146 C.ar    1  UNL1        0.0247
      9 C           1.6639    1.0815    1.0634 C.ar    1  UNL1       -0.0055
     10 C           1.1028   -1.2441    0.3780 C.ar    1  UNL1        0.1810
     11 C          -0.0231   -1.9131   -0.1393 C.ar    1  UNL1        0.2138
     12 O          -1.3232   -1.4949    0.1662 O.3     1  UNL1       -0.4532
     13 C          -1.9679   -0.4565   -0.5708 C.3     1  UNL1        0.2311
     14 O          -1.3453    0.7772   -0.2524 O.3     1  UNL1       -0.3313
     15 C          -2.0410    1.8611   -0.8319 C.3     1  UNL1        0.1140
     16 C          -1.1335    3.0991   -0.7573 C.3     1  UNL1        0.0731
     17 O          -1.7248    4.2004   -1.3921 O.3     1  UNL1       -0.3924
     18 C          -3.3896    2.0923   -0.0926 C.3     1  UNL1        0.1120
     19 O          -4.3490    2.5654   -1.0051 O.3     1  UNL1       -0.3865
     20 C          -3.9152    0.7850    0.5551 C.3     1  UNL1        0.1152
     21 O          -3.5124    0.6792    1.8998 O.3     1  UNL1       -0.3864
     22 C          -3.4885   -0.4676   -0.2433 C.3     1  UNL1        0.1454
     23 O          -4.2151   -0.5278   -1.4456 O.3     1  UNL1       -0.3829
     24 C           0.1701   -3.0008   -0.9975 C.ar    1  UNL1        0.2382
     25 O          -0.8356   -3.6136   -1.4488 O.2     1  UNL1       -0.2830
     26 C           1.4793   -3.3848   -1.3528 C.ar    1  UNL1        0.1092
     27 C           1.7595   -4.4664   -2.2217 C.ar    1  UNL1        0.1348
     28 O           0.7295   -5.2295   -2.7732 O.3     1  UNL1       -0.5058
     29 C           3.0904   -4.7790   -2.5360 C.ar    1  UNL1        0.0223
     30 C           4.1443   -4.0305   -1.9992 C.ar    1  UNL1        0.1239
     31 O           5.4661   -4.3401   -2.3122 O.3     1  UNL1       -0.5065
     32 C           3.8727   -2.9634   -1.1412 C.ar    1  UNL1        0.0231
     33 C           2.5535   -2.6369   -0.8139 C.ar    1  UNL1        0.1465
     34 O           2.3236   -1.6206    0.0104 O.2     1  UNL1       -0.4507
     35 H           3.3660    4.7147    0.6032 H       1  UNL1        0.0660
     36 H           3.8679    2.9838    0.5441 H       1  UNL1        0.0660
     37 H           2.4100    3.5514   -0.3891 H       1  UNL1        0.0660
     38 H           0.9791    4.0398    3.7900 H       1  UNL1        0.2923
     39 H          -0.6101    0.7909    4.1906 H       1  UNL1        0.0655
     40 H          -0.3704   -1.1299    2.6740 H       1  UNL1        0.0626
     41 H           2.2896    1.1480    0.1830 H       1  UNL1        0.0662
     42 H          -1.8201   -0.6703   -1.6557 H       1  UNL1        0.1084
     43 H          -2.2310    1.6575   -1.9135 H       1  UNL1        0.0647
     44 H          -0.1497    2.8718   -1.2284 H       1  UNL1        0.0584
     45 H          -0.9362    3.3587    0.3051 H       1  UNL1        0.0584
     46 H          -1.6473    4.0405   -2.3688 H       1  UNL1        0.2095
     47 H          -3.2594    2.8392    0.7277 H       1  UNL1        0.0647
     48 H          -4.2334    3.5489   -1.0686 H       1  UNL1        0.2100
     49 H          -5.0271    0.8225    0.5695 H       1  UNL1        0.0648
     50 H          -2.5242    0.7344    1.9326 H       1  UNL1        0.2100
     51 H          -3.7256   -1.3729    0.3655 H       1  UNL1        0.0683
     52 H          -5.1290   -0.8426   -1.2177 H       1  UNL1        0.2102
     53 H           0.9166   -6.0062   -3.3968 H       1  UNL1        0.2922
     54 H           3.3060   -5.6061   -3.2008 H       1  UNL1        0.0691
     55 H           5.6981   -5.1080   -2.9314 H       1  UNL1        0.2921
     56 H           4.6901   -2.3867   -0.7258 H       1  UNL1        0.0691
@<TRIPOS>BOND
     1     1     2    1
     2     2     3    1
     3     3     4   ar
     4     4     5    1
     5     4     6   ar
     6     6     7   ar
     7     7     8   ar
     8     8     9   ar
     9     8    10    1
    10    10    11   ar
    11    11    12    1
    12    12    13    1
    13    13    14    1
    14    14    15    1
    15    15    16    1
    16    16    17    1
    17    15    18    1
    18    18    19    1
    19    18    20    1
    20    20    21    1
    21    20    22    1
    22    22    23    1
    23    11    24   ar
    24    24    25    2
    25    24    26   ar
    26    26    27   ar
    27    27    28    1
    28    27    29   ar
    29    29    30   ar
    30    30    31    1
    31    30    32   ar
    32    32    33   ar
    33    33    34   ar
    34     9     3   ar
    35    34    10   ar
    36    22    13    1
    37    33    26   ar
    38     1    35    1
    39     1    36    1
    40     1    37    1
    41     5    38    1
    42     6    39    1
    43     7    40    1
    44     9    41    1
    45    13    42    1
    46    15    43    1
    47    16    44    1
    48    16    45    1
    49    17    46    1
    50    18    47    1
    51    19    48    1
    52    20    49    1
    53    21    50    1
    54    22    51    1
    55    23    52    1
    56    28    53    1
    57    29    54    1
    58    31    55    1
    59    32    56    1
