@<TRIPOS>MOLECULE
Delphinidin 3-O-galactoside
 54 57 0 0 0
SMALL
GASTEIGER

@<TRIPOS>ATOM
      1 O           2.8849    2.5309    1.3990 O.3     1  UNL1       -0.3924
      2 C           3.0037    3.1247    0.1361 C.3     1  UNL1        0.0731
      3 C           2.9843    2.0665   -0.9803 C.3     1  UNL1        0.1140
      4 O           1.7332    1.3798   -1.0180 O.3     1  UNL1       -0.3313
      5 C           1.7838    0.1051   -0.4023 C.3     1  UNL1        0.2312
      6 O           0.4722   -0.4567   -0.3709 O.3     1  UNL1       -0.4515
      7 C          -0.6247    0.0431    0.3517 C.ar    1  UNL1        0.2288
      8 C          -0.5512    1.2249    1.1065 C.ar    1  UNL1        0.0093
      9 C          -1.6908    1.7169    1.7642 C.ar    1  UNL1        0.1241
     10 C          -1.6953    2.9114    2.5321 C.ar    1  UNL1        0.1366
     11 O          -0.5644    3.7139    2.7082 O.3     1  UNL1       -0.5057
     12 C          -2.8807    3.3269    3.1512 C.ar    1  UNL1        0.0225
     13 C          -4.0572    2.5865    3.0202 C.ar    1  UNL1        0.1293
     14 O          -5.2201    3.0280    3.6475 O.3     1  UNL1       -0.5063
     15 C          -4.0589    1.4119    2.2626 C.ar    1  UNL1        0.0847
     16 C          -2.8883    0.9744    1.6375 C.ar    1  UNL1        0.3708
     17 O          -2.9168   -0.1468    0.9270 O.2     1  UNL1       -0.1997
     18 C          -1.8537   -0.6426    0.3009 C.ar    1  UNL1        0.4047
     19 C          -2.0140   -1.9084   -0.4509 C.ar    1  UNL1        0.0899
     20 C          -1.0529   -2.9310   -0.3744 C.ar    1  UNL1       -0.0000
     21 C          -1.2266   -4.1264   -1.0790 C.ar    1  UNL1        0.1628
     22 O          -0.2459   -5.1136   -0.9850 O.3     1  UNL1       -0.5032
     23 C          -2.3778   -4.3193   -1.8617 C.ar    1  UNL1        0.2006
     24 O          -2.5413   -5.5134   -2.5650 O.3     1  UNL1       -0.5009
     25 C          -3.3544   -3.3105   -1.9249 C.ar    1  UNL1        0.1628
     26 O          -4.5030   -3.4983   -2.6925 O.3     1  UNL1       -0.5032
     27 C          -3.1720   -2.1157   -1.2151 C.ar    1  UNL1       -0.0000
     28 C           2.6963   -0.8519   -1.2069 C.3     1  UNL1        0.1454
     29 O           3.0715   -1.9523   -0.4139 O.3     1  UNL1       -0.3829
     30 C           3.9272   -0.1182   -1.8044 C.3     1  UNL1        0.1152
     31 O           5.0538   -0.9563   -1.8525 O.3     1  UNL1       -0.3864
     32 C           4.2488    1.1531   -1.0059 C.3     1  UNL1        0.1120
     33 O           4.6610    0.8199    0.2973 O.3     1  UNL1       -0.3865
     34 H           2.9354    3.2713    2.0577 H       1  UNL1        0.2095
     35 H           2.1565    3.8295   -0.0203 H       1  UNL1        0.0584
     36 H           3.9540    3.7021    0.0789 H       1  UNL1        0.0584
     37 H           3.0260    2.6465   -1.9290 H       1  UNL1        0.0647
     38 H           2.1497    0.1910    0.6453 H       1  UNL1        0.1084
     39 H           0.3849    1.7477    1.1598 H       1  UNL1        0.0667
     40 H           0.3401    3.5240    2.3037 H       1  UNL1        0.2922
     41 H          -2.8871    4.2369    3.7385 H       1  UNL1        0.0691
     42 H          -6.0904    2.5143    3.5723 H       1  UNL1        0.2921
     43 H          -4.9704    0.8361    2.1597 H       1  UNL1        0.0749
     44 H          -0.1755   -2.8152    0.2496 H       1  UNL1        0.0664
     45 H          -0.3225   -5.9978   -1.4732 H       1  UNL1        0.2923
     46 H          -3.3554   -5.6943   -3.1399 H       1  UNL1        0.2924
     47 H          -5.2224   -2.7873   -2.7550 H       1  UNL1        0.2923
     48 H          -3.9290   -1.3425   -1.2714 H       1  UNL1        0.0664
     49 H           2.1097   -1.2511   -2.0642 H       1  UNL1        0.0683
     50 H           3.6270   -1.6103    0.3340 H       1  UNL1        0.2102
     51 H           3.6761    0.2055   -2.8431 H       1  UNL1        0.0648
     52 H           4.8777   -1.6285   -2.5619 H       1  UNL1        0.2100
     53 H           5.0686    1.7087   -1.5215 H       1  UNL1        0.0647
     54 H           5.6167    0.5570    0.2420 H       1  UNL1        0.2100
@<TRIPOS>UNITY_ATOM_ATTR
17 1
charge 1
@<TRIPOS>BOND
     1     1     2    1
     2     2     3    1
     3     3     4    1
     4     4     5    1
     5     5     6    1
     6     6     7    1
     7     7     8   ar
     8     8     9   ar
     9     9    10   ar
    10    10    11    1
    11    10    12   ar
    12    12    13   ar
    13    13    14    1
    14    13    15   ar
    15    15    16   ar
    16    16    17   ar
    17    17    18   ar
    18    18    19    1
    19    19    20   ar
    20    20    21   ar
    21    21    22    1
    22    21    23   ar
    23    23    24    1
    24    23    25   ar
    25    25    26    1
    26    25    27   ar
    27     5    28    1
    28    28    29    1
    29    28    30    1
    30    30    31    1
    31    30    32    1
    32    32    33    1
    33    32     3    1
    34    18     7   ar
    35    27    19   ar
    36    16     9   ar
    37     1    34    1
    38     2    35    1
    39     2    36    1
    40     3    37    1
    41     5    38    1
    42     8    39    1
    43    11    40    1
    44    12    41    1
    45    14    42    1
    46    15    43    1
    47    20    44    1
    48    22    45    1
    49    24    46    1
    50    26    47    1
    51    27    48    1
    52    28    49    1
    53    29    50    1
    54    30    51    1
    55    31    52    1
    56    32    53    1
    57    33    54    1
