@<TRIPOS>MOLECULE
Myricetin 3-O-rhamnoside
 53 56 0 0 0
SMALL
GASTEIGER

@<TRIPOS>ATOM
      1 C           4.1177    2.2210   -1.1089 C.3     1  UNL1       -0.0360
      2 C           3.2882    1.1212   -0.4435 C.3     1  UNL1        0.0883
      3 O           2.0986    1.7101    0.0593 O.3     1  UNL1       -0.3339
      4 C           1.2074    0.7350    0.5770 C.3     1  UNL1        0.2311
      5 O           0.8071   -0.1779   -0.4518 O.3     1  UNL1       -0.4532
      6 C          -0.3881   -0.9053   -0.3968 C.ar    1  UNL1        0.2138
      7 C          -1.6437   -0.2750   -0.4966 C.ar    1  UNL1        0.1812
      8 O          -2.7511   -0.9985   -0.3826 O.2     1  UNL1       -0.4507
      9 C          -2.7508   -2.3130   -0.1950 C.ar    1  UNL1        0.1465
     10 C          -3.9782   -2.9753   -0.1178 C.ar    1  UNL1        0.0231
     11 C          -4.0265   -4.3569    0.0486 C.ar    1  UNL1        0.1239
     12 O          -5.2614   -4.9999    0.1019 O.3     1  UNL1       -0.5065
     13 C          -2.8393   -5.0834    0.1675 C.ar    1  UNL1        0.0223
     14 C          -1.5940   -4.4437    0.1328 C.ar    1  UNL1        0.1348
     15 O          -0.4738   -5.2512    0.3524 O.3     1  UNL1       -0.5058
     16 C          -1.5326   -3.0350   -0.0918 C.ar    1  UNL1        0.1092
     17 C          -0.3356   -2.2948   -0.2423 C.ar    1  UNL1        0.2382
     18 O           0.7914   -2.8546   -0.2566 O.2     1  UNL1       -0.2830
     19 C          -1.7845    1.1772   -0.7478 C.ar    1  UNL1        0.0282
     20 C          -0.9824    1.8340   -1.6961 C.ar    1  UNL1       -0.0055
     21 C          -1.1260    3.2062   -1.9227 C.ar    1  UNL1        0.1626
     22 O          -0.3007    3.8251   -2.8612 O.3     1  UNL1       -0.5032
     23 C          -2.0925    3.9377   -1.2113 C.ar    1  UNL1        0.2006
     24 O          -2.2273    5.3075   -1.4410 O.3     1  UNL1       -0.5009
     25 C          -2.9157    3.2825   -0.2792 C.ar    1  UNL1        0.1626
     26 O          -3.8820    4.0003    0.4241 O.3     1  UNL1       -0.5032
     27 C          -2.7631    1.9071   -0.0573 C.ar    1  UNL1       -0.0055
     28 C           1.8279   -0.0172    1.7757 C.3     1  UNL1        0.1454
     29 O           1.9163    0.8218    2.9029 O.3     1  UNL1       -0.3829
     30 C           3.2023   -0.6059    1.3923 C.3     1  UNL1        0.1151
     31 O           3.8453   -1.1641    2.5120 O.3     1  UNL1       -0.3864
     32 C           4.0904    0.4427    0.6896 C.3     1  UNL1        0.1096
     33 O           5.2250   -0.1869    0.1507 O.3     1  UNL1       -0.3866
     34 H           3.5225    2.7032   -1.9133 H       1  UNL1        0.0255
     35 H           4.4029    2.9964   -0.3659 H       1  UNL1        0.0255
     36 H           5.0376    1.7967   -1.5643 H       1  UNL1        0.0255
     37 H           3.0535    0.3731   -1.2357 H       1  UNL1        0.0621
     38 H           0.3128    1.2769    0.9508 H       1  UNL1        0.1084
     39 H          -4.9004   -2.4134   -0.2036 H       1  UNL1        0.0691
     40 H          -5.3317   -6.0034    0.2242 H       1  UNL1        0.2921
     41 H          -2.8826   -6.1550    0.3194 H       1  UNL1        0.0691
     42 H           0.4376   -4.9148    0.6222 H       1  UNL1        0.2922
     43 H          -0.2503    1.2820   -2.2722 H       1  UNL1        0.0662
     44 H          -0.3628    4.8156   -3.0637 H       1  UNL1        0.2923
     45 H          -2.9107    5.8724   -0.9512 H       1  UNL1        0.2924
     46 H          -4.4880    3.5524    1.1017 H       1  UNL1        0.2923
     47 H          -3.3980    1.4108    0.6669 H       1  UNL1        0.0662
     48 H           1.1558   -0.8599    2.0472 H       1  UNL1        0.0683
     49 H           2.4333    1.6291    2.6479 H       1  UNL1        0.2102
     50 H           3.0222   -1.4330    0.6701 H       1  UNL1        0.0648
     51 H           4.1142   -0.4208    3.1123 H       1  UNL1        0.2100
     52 H           4.4031    1.2258    1.4202 H       1  UNL1        0.0646
     53 H           5.8608   -0.3248    0.9006 H       1  UNL1        0.2100
@<TRIPOS>BOND
     1     1     2    1
     2     2     3    1
     3     3     4    1
     4     4     5    1
     5     5     6    1
     6     6     7   ar
     7     7     8   ar
     8     8     9   ar
     9     9    10   ar
    10    10    11   ar
    11    11    12    1
    12    11    13   ar
    13    13    14   ar
    14    14    15    1
    15    14    16   ar
    16    16    17   ar
    17    17    18    2
    18     7    19    1
    19    19    20   ar
    20    20    21   ar
    21    21    22    1
    22    21    23   ar
    23    23    24    1
    24    23    25   ar
    25    25    26    1
    26    25    27   ar
    27     4    28    1
    28    28    29    1
    29    28    30    1
    30    30    31    1
    31    30    32    1
    32    32    33    1
    33    32     2    1
    34    17     6   ar
    35    27    19   ar
    36    16     9   ar
    37     1    34    1
    38     1    35    1
    39     1    36    1
    40     2    37    1
    41     4    38    1
    42    10    39    1
    43    12    40    1
    44    13    41    1
    45    15    42    1
    46    20    43    1
    47    22    44    1
    48    24    45    1
    49    26    46    1
    50    27    47    1
    51    28    48    1
    52    29    49    1
    53    30    50    1
    54    31    51    1
    55    32    52    1
    56    33    53    1
