@<TRIPOS>MOLECULE
Quercetin 3-O-rhamnosyl-galactoside
 73 77 0 0 0
SMALL
GASTEIGER

@<TRIPOS>ATOM
      1 C          -2.3643    2.1129   -2.5290 C.3     1  UNL1       -0.0361
      2 C          -2.6696    1.7053   -1.0870 C.3     1  UNL1        0.0873
      3 O          -3.3432    0.4562   -1.1121 O.3     1  UNL1       -0.3431
      4 C          -3.5433   -0.0674    0.1949 C.3     1  UNL1        0.1885
      5 O          -2.3079   -0.3126    0.8532 O.3     1  UNL1       -0.3366
      6 C          -1.6742   -1.4850    0.3617 C.3     1  UNL1        0.1519
      7 C          -1.9170   -2.6578    1.3358 C.3     1  UNL1        0.1155
      8 O          -3.2746   -3.0146    1.3328 O.3     1  UNL1       -0.3863
      9 C          -1.0462   -3.8704    0.9455 C.3     1  UNL1        0.1120
     10 O          -1.4957   -4.4184   -0.2697 O.3     1  UNL1       -0.3865
     11 C           0.4233   -3.4136    0.8018 C.3     1  UNL1        0.1140
     12 C           1.3408   -4.5705    0.3877 C.3     1  UNL1        0.0731
     13 O           1.3321   -5.5710    1.3686 O.3     1  UNL1       -0.3924
     14 O           0.5213   -2.3873   -0.1705 O.3     1  UNL1       -0.3313
     15 C          -0.1590   -1.2231    0.2693 C.3     1  UNL1        0.2315
     16 O           0.0732   -0.1721   -0.6676 O.3     1  UNL1       -0.4532
     17 C           1.3557    0.2676   -1.0236 C.ar    1  UNL1        0.2138
     18 C           2.2561    0.8078   -0.0836 C.ar    1  UNL1        0.1810
     19 O           3.4990    1.0924   -0.4522 O.2     1  UNL1       -0.4507
     20 C           3.9395    0.9604   -1.6978 C.ar    1  UNL1        0.1465
     21 C           5.2764    1.2608   -1.9695 C.ar    1  UNL1        0.0231
     22 C           5.7796    1.1350   -3.2652 C.ar    1  UNL1        0.1239
     23 O           7.1170    1.4142   -3.5378 O.3     1  UNL1       -0.5065
     24 C           4.9352    0.7361   -4.3005 C.ar    1  UNL1        0.0223
     25 C           3.5822    0.4619   -4.0655 C.ar    1  UNL1        0.1348
     26 O           2.8017    0.1616   -5.1858 O.3     1  UNL1       -0.5058
     27 C           3.0723    0.5268   -2.7344 C.ar    1  UNL1        0.1092
     28 C           1.7635    0.1437   -2.3562 C.ar    1  UNL1        0.2382
     29 O           0.9577   -0.3594   -3.1823 O.2     1  UNL1       -0.2830
     30 C           1.8668    1.0874    1.3120 C.ar    1  UNL1        0.0247
     31 C           2.6844    0.6525    2.3655 C.ar    1  UNL1       -0.0057
     32 C           2.3182    0.8989    3.6970 C.ar    1  UNL1        0.1589
     33 O           3.1261    0.4488    4.7400 O.3     1  UNL1       -0.5033
     34 C           1.1325    1.6004    3.9769 C.ar    1  UNL1        0.1583
     35 O           0.7389    1.8571    5.2897 O.3     1  UNL1       -0.5033
     36 C           0.3304    2.0554    2.9255 C.ar    1  UNL1       -0.0159
     37 C           0.6981    1.8097    1.6009 C.ar    1  UNL1       -0.0473
     38 C          -4.4183    0.8740    1.0519 C.3     1  UNL1        0.1341
     39 O          -5.7574    0.8520    0.6168 O.3     1  UNL1       -0.3841
     40 C          -3.8435    2.3059    1.0540 C.3     1  UNL1        0.1140
     41 O          -4.7078    3.1988    1.7133 O.3     1  UNL1       -0.3864
     42 C          -3.5167    2.7817   -0.3764 C.3     1  UNL1        0.1095
     43 O          -2.7945    3.9855   -0.3175 O.3     1  UNL1       -0.3866
     44 H          -1.7846    3.0600   -2.5542 H       1  UNL1        0.0255
     45 H          -3.3062    2.2454   -3.1031 H       1  UNL1        0.0255
     46 H          -1.7568    1.3225   -3.0195 H       1  UNL1        0.0255
     47 H          -1.6939    1.6128   -0.5688 H       1  UNL1        0.0621
     48 H          -4.1240   -1.0120    0.0936 H       1  UNL1        0.0938
     49 H          -2.0221   -1.7738   -0.6608 H       1  UNL1        0.0687
     50 H          -1.6270   -2.3239    2.3611 H       1  UNL1        0.0648
     51 H          -3.4252   -3.5754    2.1382 H       1  UNL1        0.2100
     52 H          -1.1075   -4.6327    1.7580 H       1  UNL1        0.0647
     53 H          -2.2481   -5.0281   -0.0517 H       1  UNL1        0.2100
     54 H           0.7953   -3.0501    1.7896 H       1  UNL1        0.0647
     55 H           2.3770   -4.1815    0.2683 H       1  UNL1        0.0584
     56 H           1.0128   -4.9913   -0.5893 H       1  UNL1        0.0584
     57 H           1.9370   -6.2852    1.0386 H       1  UNL1        0.2095
     58 H           0.2118   -0.9078    1.2686 H       1  UNL1        0.1084
     59 H           5.9278    1.5842   -1.1667 H       1  UNL1        0.0691
     60 H           7.7561    1.7094   -2.8089 H       1  UNL1        0.2921
     61 H           5.3275    0.6666   -5.3077 H       1  UNL1        0.0691
     62 H           1.7952    0.2224   -5.2174 H       1  UNL1        0.2922
     63 H           3.5951    0.1054    2.1532 H       1  UNL1        0.0662
     64 H           3.9848   -0.0598    4.5647 H       1  UNL1        0.2923
     65 H           1.2854    1.5492    6.0851 H       1  UNL1        0.2923
     66 H          -0.5782    2.6054    3.1357 H       1  UNL1        0.0655
     67 H           0.0779    2.1911    0.8022 H       1  UNL1        0.0626
     68 H          -4.4070    0.4979    2.0985 H       1  UNL1        0.0671
     69 H          -5.7725    1.0800   -0.3485 H       1  UNL1        0.2101
     70 H          -2.8908    2.2832    1.6298 H       1  UNL1        0.0648
     71 H          -5.5150    3.3169    1.1480 H       1  UNL1        0.2100
     72 H          -4.4588    2.9323   -0.9546 H       1  UNL1        0.0646
     73 H          -3.4546    4.7094   -0.1574 H       1  UNL1        0.2100
@<TRIPOS>BOND
     1     1     2    1
     2     2     3    1
     3     3     4    1
     4     4     5    1
     5     5     6    1
     6     6     7    1
     7     7     8    1
     8     7     9    1
     9     9    10    1
    10     9    11    1
    11    11    12    1
    12    12    13    1
    13    11    14    1
    14    14    15    1
    15    15    16    1
    16    16    17    1
    17    17    18   ar
    18    18    19   ar
    19    19    20   ar
    20    20    21   ar
    21    21    22   ar
    22    22    23    1
    23    22    24   ar
    24    24    25   ar
    25    25    26    1
    26    25    27   ar
    27    27    28   ar
    28    28    29    2
    29    18    30    1
    30    30    31   ar
    31    31    32   ar
    32    32    33    1
    33    32    34   ar
    34    34    35    1
    35    34    36   ar
    36    36    37   ar
    37     4    38    1
    38    38    39    1
    39    38    40    1
    40    40    41    1
    41    40    42    1
    42    42    43    1
    43    42     2    1
    44    15     6    1
    45    28    17   ar
    46    37    30   ar
    47    27    20   ar
    48     1    44    1
    49     1    45    1
    50     1    46    1
    51     2    47    1
    52     4    48    1
    53     6    49    1
    54     7    50    1
    55     8    51    1
    56     9    52    1
    57    10    53    1
    58    11    54    1
    59    12    55    1
    60    12    56    1
    61    13    57    1
    62    15    58    1
    63    21    59    1
    64    23    60    1
    65    24    61    1
    66    26    62    1
    67    31    63    1
    68    33    64    1
    69    35    65    1
    70    36    66    1
    71    37    67    1
    72    38    68    1
    73    39    69    1
    74    40    70    1
    75    41    71    1
    76    42    72    1
    77    43    73    1
