@<TRIPOS>MOLECULE
Quercetin 3-O-glucuronide
 52 55 0 0 0
SMALL
GASTEIGER

@<TRIPOS>ATOM
      1 O          -4.0222    1.8578   -3.1406 O.3     1  UNL1       -0.3863
      2 C          -3.5189    1.5365   -1.8659 C.3     1  UNL1        0.1157
      3 C          -2.0365    1.9699   -1.7026 C.3     1  UNL1        0.1455
      4 O          -1.3550    2.0028   -2.9335 O.3     1  UNL1       -0.3829
      5 C          -1.2959    1.0545   -0.6996 C.3     1  UNL1        0.2316
      6 O          -0.1843    1.7605   -0.1510 O.3     1  UNL1       -0.4532
      7 C           0.7125    1.1629    0.7432 C.ar    1  UNL1        0.2138
      8 C           1.5712    0.1127    0.3531 C.ar    1  UNL1        0.1810
      9 O           2.3404   -0.4811    1.2609 O.2     1  UNL1       -0.4507
     10 C           2.3805   -0.1125    2.5363 C.ar    1  UNL1        0.1465
     11 C           3.2226   -0.7976    3.4169 C.ar    1  UNL1        0.0231
     12 C           3.2941   -0.4246    4.7601 C.ar    1  UNL1        0.1239
     13 O           4.1402   -1.1197    5.6213 O.3     1  UNL1       -0.5065
     14 C           2.5186    0.6418    5.2295 C.ar    1  UNL1        0.0223
     15 C           1.6655    1.3406    4.3623 C.ar    1  UNL1        0.1348
     16 O           0.9028    2.3982    4.8593 O.3     1  UNL1       -0.5058
     17 C           1.5888    0.9646    2.9998 C.ar    1  UNL1        0.1092
     18 C           0.7460    1.6057    2.0697 C.ar    1  UNL1        0.2382
     19 O           0.0027    2.5641    2.4156 O.2     1  UNL1       -0.2830
     20 C           1.6602   -0.3574   -1.0458 C.ar    1  UNL1        0.0247
     21 C           1.7302    0.5520   -2.1147 C.ar    1  UNL1       -0.0473
     22 C           1.8025    0.0891   -3.4305 C.ar    1  UNL1       -0.0159
     23 C           1.8212   -1.2834   -3.6973 C.ar    1  UNL1        0.1583
     24 O           1.8892   -1.7159   -5.0212 O.3     1  UNL1       -0.5033
     25 C           1.7744   -2.2011   -2.6341 C.ar    1  UNL1        0.1589
     26 O           1.7976   -3.5708   -2.8922 O.3     1  UNL1       -0.5033
     27 C           1.7027   -1.7344   -1.3136 C.ar    1  UNL1       -0.0057
     28 O          -2.1690    0.6722    0.3496 O.3     1  UNL1       -0.3221
     29 C          -3.1633   -0.2496   -0.0937 C.3     1  UNL1        0.1869
     30 C          -3.6898    0.0369   -1.5354 C.3     1  UNL1        0.1202
     31 O          -5.0298   -0.3674   -1.6765 O.3     1  UNL1       -0.3860
     32 C          -2.6770   -1.6677    0.0470 C.2     1  UNL1        0.3367
     33 O          -1.3503   -1.9298    0.3789 O.3     1  UNL1       -0.4788
     34 O          -3.4770   -2.6252   -0.1308 O.2     1  UNL1       -0.2480
     35 H          -3.6602    1.2002   -3.7898 H       1  UNL1        0.2100
     36 H          -4.1180    2.1102   -1.1234 H       1  UNL1        0.0648
     37 H          -2.0370    3.0059   -1.2970 H       1  UNL1        0.0683
     38 H          -1.3363    1.0780   -3.2945 H       1  UNL1        0.2102
     39 H          -0.9214    0.1511   -1.2293 H       1  UNL1        0.1084
     40 H           3.8257   -1.6214    3.0554 H       1  UNL1        0.0691
     41 H           4.2162   -0.8747    6.6017 H       1  UNL1        0.2921
     42 H           2.5778    0.9282    6.2721 H       1  UNL1        0.0691
     43 H           0.9482    2.6770    5.8325 H       1  UNL1        0.2922
     44 H           1.7332    1.6191   -1.9322 H       1  UNL1        0.0626
     45 H           1.8464    0.7995   -4.2463 H       1  UNL1        0.0655
     46 H           1.9055   -2.6987   -5.2659 H       1  UNL1        0.2923
     47 H           1.7632   -4.2527   -2.1434 H       1  UNL1        0.2923
     48 H           1.6599   -2.4462   -0.4979 H       1  UNL1        0.0662
     49 H          -4.0164   -0.1378    0.6100 H       1  UNL1        0.0742
     50 H          -3.0846   -0.5453   -2.2666 H       1  UNL1        0.0652
     51 H          -5.5826    0.2038   -1.0816 H       1  UNL1        0.2100
     52 H          -1.0146   -2.8809    0.4713 H       1  UNL1        0.2951
@<TRIPOS>BOND
     1     1     2    1
     2     2     3    1
     3     3     4    1
     4     3     5    1
     5     5     6    1
     6     6     7    1
     7     7     8   ar
     8     8     9   ar
     9     9    10   ar
    10    10    11   ar
    11    11    12   ar
    12    12    13    1
    13    12    14   ar
    14    14    15   ar
    15    15    16    1
    16    15    17   ar
    17    17    18   ar
    18    18    19    2
    19     8    20    1
    20    20    21   ar
    21    21    22   ar
    22    22    23   ar
    23    23    24    1
    24    23    25   ar
    25    25    26    1
    26    25    27   ar
    27     5    28    1
    28    28    29    1
    29    29    30    1
    30    30    31    1
    31    29    32    1
    32    32    33    1
    33    32    34    2
    34    30     2    1
    35    18     7   ar
    36    27    20   ar
    37    17    10   ar
    38     1    35    1
    39     2    36    1
    40     3    37    1
    41     4    38    1
    42     5    39    1
    43    11    40    1
    44    13    41    1
    45    14    42    1
    46    16    43    1
    47    21    44    1
    48    22    45    1
    49    24    46    1
    50    26    47    1
    51    27    48    1
    52    29    49    1
    53    30    50    1
    54    31    51    1
    55    33    52    1
