@<TRIPOS>MOLECULE
Isorhamnetin 3-O-glucuronide
 55 58 0 0 0
SMALL
GASTEIGER

@<TRIPOS>ATOM
      1 C           2.3467    0.4552    0.1942 C.3     1  UNL1        0.2316
      2 O           0.9813    0.0338    0.1521 O.3     1  UNL1       -0.4532
      3 C          -0.1462    0.7918   -0.2308 C.ar    1  UNL1        0.2138
      4 C          -1.4212    0.2330   -0.0138 C.ar    1  UNL1        0.1810
      5 O          -2.5137    0.9294   -0.2982 O.2     1  UNL1       -0.4507
      6 C          -2.4906    2.1408   -0.8344 C.ar    1  UNL1        0.1465
      7 C          -3.7055    2.7891   -1.0707 C.ar    1  UNL1        0.0231
      8 C          -3.7284    4.0687   -1.6195 C.ar    1  UNL1        0.1239
      9 O          -4.9497    4.7065   -1.8257 O.3     1  UNL1       -0.5065
     10 C          -2.5294    4.6953   -1.9671 C.ar    1  UNL1        0.0223
     11 C          -1.2994    4.0531   -1.7788 C.ar    1  UNL1        0.1348
     12 O          -0.1677    4.7187   -2.2590 O.3     1  UNL1       -0.5058
     13 C          -1.2621    2.7700   -1.1535 C.ar    1  UNL1        0.1092
     14 C          -0.0739    2.0925   -0.7856 C.ar    1  UNL1        0.2382
     15 O           1.0411    2.6583   -0.9085 O.2     1  UNL1       -0.2830
     16 C          -1.5967   -1.1126    0.5777 C.ar    1  UNL1        0.0247
     17 C          -2.5435   -1.3022    1.5969 C.ar    1  UNL1       -0.0055
     18 C          -2.7409   -2.5757    2.1682 C.ar    1  UNL1        0.1619
     19 O          -3.6707   -2.7923    3.1979 O.3     1  UNL1       -0.4914
     20 C          -4.4966   -1.7814    3.7667 C.3     1  UNL1        0.0790
     21 C          -1.9864   -3.6647    1.6949 C.ar    1  UNL1        0.1585
     22 O          -2.1476   -4.9414    2.2329 O.3     1  UNL1       -0.5033
     23 C          -1.0597   -3.4788    0.6652 C.ar    1  UNL1       -0.0159
     24 C          -0.8706   -2.2153    0.1044 C.ar    1  UNL1       -0.0473
     25 O           2.8378    0.7147   -1.1207 O.3     1  UNL1       -0.3221
     26 C           3.3813   -0.4223   -1.7738 C.3     1  UNL1        0.1869
     27 C           2.3077   -1.4387   -2.0908 C.2     1  UNL1        0.3367
     28 O           1.2790   -1.0846   -2.9585 O.3     1  UNL1       -0.4788
     29 O           2.3185   -2.5896   -1.5760 O.2     1  UNL1       -0.2480
     30 C           4.6320   -0.9883   -1.0277 C.3     1  UNL1        0.1202
     31 O           5.8079   -0.4797   -1.6061 O.3     1  UNL1       -0.3860
     32 C           4.6240   -0.6123    0.4655 C.3     1  UNL1        0.1157
     33 O           5.3859   -1.5483    1.1850 O.3     1  UNL1       -0.3863
     34 C           3.1802   -0.5849    0.9875 C.3     1  UNL1        0.1455
     35 O           3.1357   -0.3151    2.3678 O.3     1  UNL1       -0.3829
     36 H           2.3978    1.4131    0.7553 H       1  UNL1        0.1084
     37 H          -4.6369    2.2995   -0.8133 H       1  UNL1        0.0691
     38 H          -5.0013    5.6361   -2.2258 H       1  UNL1        0.2921
     39 H          -2.5527    5.6785   -2.4210 H       1  UNL1        0.0691
     40 H           0.7075    4.2690   -2.4837 H       1  UNL1        0.2922
     41 H          -3.1122   -0.4514    1.9484 H       1  UNL1        0.0662
     42 H          -3.8688   -0.9891    4.2264 H       1  UNL1        0.0660
     43 H          -5.1312   -2.2338    4.5559 H       1  UNL1        0.0660
     44 H          -5.1563   -1.3441    2.9877 H       1  UNL1        0.0660
     45 H          -2.8049   -5.1339    2.9791 H       1  UNL1        0.2923
     46 H          -0.4893   -4.3202    0.2922 H       1  UNL1        0.0655
     47 H          -0.1746   -2.1044   -0.7136 H       1  UNL1        0.0626
     48 H           3.7279   -0.0699   -2.7694 H       1  UNL1        0.0742
     49 H           0.5415   -1.7404   -3.1865 H       1  UNL1        0.2951
     50 H           4.6541   -2.1006   -1.1070 H       1  UNL1        0.0652
     51 H           5.9541   -0.9804   -2.4512 H       1  UNL1        0.2100
     52 H           5.0660    0.4076    0.5802 H       1  UNL1        0.0648
     53 H           5.6689   -1.1056    2.0273 H       1  UNL1        0.2100
     54 H           2.7403   -1.5950    0.8357 H       1  UNL1        0.0683
     55 H           3.6114    0.5423    2.5255 H       1  UNL1        0.2102
@<TRIPOS>BOND
     1     1     2    1
     2     2     3    1
     3     3     4   ar
     4     4     5   ar
     5     5     6   ar
     6     6     7   ar
     7     7     8   ar
     8     8     9    1
     9     8    10   ar
    10    10    11   ar
    11    11    12    1
    12    11    13   ar
    13    13    14   ar
    14    14    15    2
    15     4    16    1
    16    16    17   ar
    17    17    18   ar
    18    18    19    1
    19    19    20    1
    20    18    21   ar
    21    21    22    1
    22    21    23   ar
    23    23    24   ar
    24     1    25    1
    25    25    26    1
    26    26    27    1
    27    27    28    1
    28    27    29    2
    29    26    30    1
    30    30    31    1
    31    30    32    1
    32    32    33    1
    33    32    34    1
    34    34    35    1
    35    34     1    1
    36    14     3   ar
    37    24    16   ar
    38    13     6   ar
    39     1    36    1
    40     7    37    1
    41     9    38    1
    42    10    39    1
    43    12    40    1
    44    17    41    1
    45    20    42    1
    46    20    43    1
    47    20    44    1
    48    22    45    1
    49    23    46    1
    50    24    47    1
    51    26    48    1
    52    28    49    1
    53    30    50    1
    54    31    51    1
    55    32    52    1
    56    33    53    1
    57    34    54    1
    58    35    55    1
