@<TRIPOS>MOLECULE
Myricetin 3-O-arabinoside
 50 53 0 0 0
SMALL
GASTEIGER

@<TRIPOS>ATOM
      1 O           5.8919    1.8416   -0.1346 O.3     1  UNL1       -0.3924
      2 C           4.5834    2.1284   -0.5497 C.3     1  UNL1        0.0731
      3 C           3.8240    0.8390   -0.8905 C.3     1  UNL1        0.1141
      4 O           2.5221    1.1599   -1.3341 O.3     1  UNL1       -0.3313
      5 C           1.6093    0.3700   -0.6063 C.3     1  UNL1        0.2311
      6 O           0.6372   -0.1716   -1.5014 O.3     1  UNL1       -0.4532
      7 C          -0.5221   -0.8205   -1.0566 C.ar    1  UNL1        0.2138
      8 C          -1.5418   -0.1380   -0.3585 C.ar    1  UNL1        0.1812
      9 O          -2.5805   -0.8174    0.1193 O.2     1  UNL1       -0.4507
     10 C          -2.7422   -2.1237   -0.0579 C.ar    1  UNL1        0.1465
     11 C          -1.7935   -2.8734   -0.7922 C.ar    1  UNL1        0.1092
     12 C          -2.0034   -4.2613   -0.9751 C.ar    1  UNL1        0.1348
     13 O          -1.0928   -5.0366   -1.6941 O.3     1  UNL1       -0.5058
     14 C          -3.1415   -4.8707   -0.4262 C.ar    1  UNL1        0.0223
     15 C          -4.0702   -4.1221    0.3004 C.ar    1  UNL1        0.1239
     16 O          -5.1912   -4.7520    0.8364 O.3     1  UNL1       -0.5065
     17 C          -3.8687   -2.7501    0.4831 C.ar    1  UNL1        0.0231
     18 C          -0.6695   -2.1907   -1.2987 C.ar    1  UNL1        0.2382
     19 O           0.2203   -2.7974   -1.9549 O.2     1  UNL1       -0.2830
     20 C          -1.5131    1.3256   -0.1436 C.ar    1  UNL1        0.0282
     21 C          -1.8962    1.8510    1.0975 C.ar    1  UNL1       -0.0055
     22 C          -1.8844    3.2309    1.3301 C.ar    1  UNL1        0.1626
     23 O          -2.2677    3.6780    2.5965 O.3     1  UNL1       -0.5032
     24 C          -1.4920    4.1119    0.2933 C.ar    1  UNL1        0.2006
     25 O          -1.4516    5.4977    0.4682 O.3     1  UNL1       -0.5009
     26 C          -1.1307    3.5846   -0.9604 C.ar    1  UNL1        0.1626
     27 O          -0.7499    4.4202   -2.0107 O.3     1  UNL1       -0.5032
     28 C          -1.1501    2.2041   -1.1751 C.ar    1  UNL1       -0.0055
     29 C           2.3750   -0.7406    0.0946 C.3     1  UNL1        0.1454
     30 O           1.7658   -1.0740    1.3142 O.3     1  UNL1       -0.3829
     31 C           3.7243   -0.1099    0.3030 C.3     1  UNL1        0.1152
     32 O           4.7490   -1.0686    0.2661 O.3     1  UNL1       -0.3864
     33 H           6.4010    1.5956   -0.9507 H       1  UNL1        0.2095
     34 H           4.0579    2.6695    0.2662 H       1  UNL1        0.0584
     35 H           4.6023    2.7998   -1.4381 H       1  UNL1        0.0584
     36 H           4.3493    0.3296   -1.7299 H       1  UNL1        0.0647
     37 H           1.1213    1.0254    0.1475 H       1  UNL1        0.1084
     38 H          -1.2312   -6.0310   -1.8317 H       1  UNL1        0.2922
     39 H          -3.3053   -5.9323   -0.5636 H       1  UNL1        0.0691
     40 H          -5.8841   -4.2382    1.3683 H       1  UNL1        0.2921
     41 H          -4.5895   -2.1678    1.0439 H       1  UNL1        0.0691
     42 H          -2.1929    1.1841    1.8985 H       1  UNL1        0.0662
     43 H          -2.3028    4.6497    2.8680 H       1  UNL1        0.2923
     44 H          -1.6841    5.9679    1.3308 H       1  UNL1        0.2924
     45 H          -0.7169    5.4281   -1.9159 H       1  UNL1        0.2923
     46 H          -0.8903    1.8213   -2.1542 H       1  UNL1        0.0662
     47 H           2.4531   -1.6316   -0.5735 H       1  UNL1        0.0683
     48 H           2.1850   -1.9220    1.6145 H       1  UNL1        0.2102
     49 H           3.7439    0.4575    1.2649 H       1  UNL1        0.0648
     50 H           4.7343   -1.5301    1.1447 H       1  UNL1        0.2100
@<TRIPOS>BOND
     1     1     2    1
     2     2     3    1
     3     3     4    1
     4     4     5    1
     5     5     6    1
     6     6     7    1
     7     7     8   ar
     8     8     9   ar
     9     9    10   ar
    10    10    11   ar
    11    11    12   ar
    12    12    13    1
    13    12    14   ar
    14    14    15   ar
    15    15    16    1
    16    15    17   ar
    17    11    18   ar
    18    18    19    2
    19     8    20    1
    20    20    21   ar
    21    21    22   ar
    22    22    23    1
    23    22    24   ar
    24    24    25    1
    25    24    26   ar
    26    26    27    1
    27    26    28   ar
    28     5    29    1
    29    29    30    1
    30    29    31    1
    31    31    32    1
    32    31     3    1
    33    18     7   ar
    34    28    20   ar
    35    17    10   ar
    36     1    33    1
    37     2    34    1
    38     2    35    1
    39     3    36    1
    40     5    37    1
    41    13    38    1
    42    14    39    1
    43    16    40    1
    44    17    41    1
    45    21    42    1
    46    23    43    1
    47    25    44    1
    48    27    45    1
    49    28    46    1
    50    29    47    1
    51    30    48    1
    52    31    49    1
    53    32    50    1
