@<TRIPOS>MOLECULE
Quercetin 7,4'-O-diglucoside
 74 78 0 0 0
SMALL
GASTEIGER

@<TRIPOS>ATOM
      1 O           8.8066    1.6311    3.3329 O.3     1  UNL1       -0.3924
      2 C           9.3246    0.4553    2.7727 C.3     1  UNL1        0.0731
      3 C           8.6929    0.1931    1.4004 C.3     1  UNL1        0.1140
      4 O           7.2853    0.1435    1.5426 O.3     1  UNL1       -0.3313
      5 C           6.6753   -0.4276    0.3931 C.3     1  UNL1        0.2308
      6 O           5.2687   -0.1947    0.4992 O.3     1  UNL1       -0.4606
      7 C           4.2633   -0.8391   -0.2414 C.ar    1  UNL1        0.1310
      8 C           4.5248   -1.9123   -1.1116 C.ar    1  UNL1        0.0226
      9 C           3.4872   -2.5199   -1.8342 C.ar    1  UNL1        0.1348
     10 O           3.7830   -3.5806   -2.6918 O.3     1  UNL1       -0.5058
     11 C           2.1599   -2.0541   -1.6858 C.ar    1  UNL1        0.1092
     12 C           1.0658   -2.6057   -2.3838 C.ar    1  UNL1        0.2379
     13 O           1.2279   -3.5581   -3.1945 O.2     1  UNL1       -0.2830
     14 C          -0.2211   -2.0834   -2.1810 C.ar    1  UNL1        0.2082
     15 O          -1.3142   -2.5790   -2.8965 O.3     1  UNL1       -0.5007
     16 C          -0.3901   -1.0282   -1.2639 C.ar    1  UNL1        0.1807
     17 O           0.6677   -0.5240   -0.6352 O.2     1  UNL1       -0.4507
     18 C           1.9034   -0.9807   -0.8032 C.ar    1  UNL1        0.1465
     19 C           2.9500   -0.3870   -0.0932 C.ar    1  UNL1        0.0235
     20 C          -1.7176   -0.4365   -0.9810 C.ar    1  UNL1        0.0247
     21 C          -1.8384    0.9534   -0.8404 C.ar    1  UNL1       -0.0057
     22 C          -3.0756    1.5384   -0.5500 C.ar    1  UNL1        0.1592
     23 O          -3.1496    2.9265   -0.4329 O.3     1  UNL1       -0.5033
     24 C          -4.2175    0.7340   -0.3795 C.ar    1  UNL1        0.1652
     25 O          -5.4432    1.3645   -0.0944 O.3     1  UNL1       -0.4572
     26 C          -6.6975    0.7249    0.1566 C.3     1  UNL1        0.2310
     27 O          -7.7192    1.6377   -0.2126 O.3     1  UNL1       -0.3313
     28 C          -9.0350    1.2977    0.2277 C.3     1  UNL1        0.1140
     29 C          -9.5346    2.4013    1.1760 C.3     1  UNL1        0.0731
     30 O         -10.9130    2.2730    1.4085 O.3     1  UNL1       -0.3924
     31 C          -9.1960   -0.1253    0.8447 C.3     1  UNL1        0.1120
     32 O          -9.0959   -1.0931   -0.1709 O.3     1  UNL1       -0.3865
     33 C          -8.1236   -0.4094    1.9238 C.3     1  UNL1        0.1152
     34 O          -8.6039   -0.0501    3.1951 O.3     1  UNL1       -0.3864
     35 C          -6.8077    0.3488    1.6509 C.3     1  UNL1        0.1454
     36 O          -5.7246   -0.4527    2.0497 O.3     1  UNL1       -0.3829
     37 C          -4.0903   -0.6645   -0.5006 C.ar    1  UNL1       -0.0155
     38 C          -2.8516   -1.2415   -0.7905 C.ar    1  UNL1       -0.0473
     39 C           7.2114    0.1879   -0.9398 C.3     1  UNL1        0.1454
     40 O           8.0894   -0.7123   -1.5685 O.3     1  UNL1       -0.3829
     41 C           7.9623    1.5046   -0.6659 C.3     1  UNL1        0.1152
     42 O           7.0657    2.4697   -0.1739 O.3     1  UNL1       -0.3864
     43 C           9.0918    1.2838    0.3658 C.3     1  UNL1        0.1120
     44 O          10.2627    0.8946   -0.3068 O.3     1  UNL1       -0.3865
     45 H           9.2593    1.7409    4.2091 H       1  UNL1        0.2095
     46 H          10.4298    0.5371    2.6706 H       1  UNL1        0.0584
     47 H           9.0990   -0.4044    3.4429 H       1  UNL1        0.0584
     48 H           9.0771   -0.7992    1.0609 H       1  UNL1        0.0647
     49 H           6.8568   -1.5254    0.4211 H       1  UNL1        0.1084
     50 H           5.5275   -2.2910   -1.2344 H       1  UNL1        0.0691
     51 H           4.7290   -3.9246   -2.8090 H       1  UNL1        0.2922
     52 H          -1.2262   -3.3304   -3.5700 H       1  UNL1        0.2924
     53 H           2.7414    0.4365    0.5790 H       1  UNL1        0.0691
     54 H          -0.9709    1.5901   -0.9681 H       1  UNL1        0.0662
     55 H          -4.0165    3.4062   -0.2223 H       1  UNL1        0.2923
     56 H          -6.7879   -0.1709   -0.4922 H       1  UNL1        0.1084
     57 H          -9.6918    1.3413   -0.6689 H       1  UNL1        0.0647
     58 H          -9.3598    3.3884    0.6970 H       1  UNL1        0.0584
     59 H          -8.9593    2.3996    2.1294 H       1  UNL1        0.0584
     60 H         -11.0199    1.8243    2.2874 H       1  UNL1        0.2095
     61 H         -10.2042   -0.2225    1.3110 H       1  UNL1        0.0647
     62 H          -9.9480   -1.0700   -0.6804 H       1  UNL1        0.2100
     63 H          -7.9085   -1.5057    1.9186 H       1  UNL1        0.0648
     64 H          -9.2422   -0.7575    3.4747 H       1  UNL1        0.2100
     65 H          -6.8093    1.2991    2.2380 H       1  UNL1        0.0683
     66 H          -4.9990    0.1583    2.3429 H       1  UNL1        0.2102
     67 H          -4.9326   -1.3246   -0.3576 H       1  UNL1        0.0655
     68 H          -2.7779   -2.3203   -0.8393 H       1  UNL1        0.0626
     69 H           6.3650    0.4143   -1.6307 H       1  UNL1        0.0683
     70 H           7.5319   -1.3637   -2.0674 H       1  UNL1        0.2102
     71 H           8.4098    1.8785   -1.6175 H       1  UNL1        0.0648
     72 H           6.5238    2.7804   -0.9457 H       1  UNL1        0.2100
     73 H           9.2747    2.2607    0.8737 H       1  UNL1        0.0647
     74 H          11.0191    1.0506    0.3168 H       1  UNL1        0.2100
@<TRIPOS>BOND
     1     1     2    1
     2     2     3    1
     3     3     4    1
     4     4     5    1
     5     5     6    1
     6     6     7    1
     7     7     8   ar
     8     8     9   ar
     9     9    10    1
    10     9    11   ar
    11    11    12   ar
    12    12    13    2
    13    12    14   ar
    14    14    15    1
    15    14    16   ar
    16    16    17   ar
    17    17    18   ar
    18    18    19   ar
    19    16    20    1
    20    20    21   ar
    21    21    22   ar
    22    22    23    1
    23    22    24   ar
    24    24    25    1
    25    25    26    1
    26    26    27    1
    27    27    28    1
    28    28    29    1
    29    29    30    1
    30    28    31    1
    31    31    32    1
    32    31    33    1
    33    33    34    1
    34    33    35    1
    35    35    36    1
    36    24    37   ar
    37    37    38   ar
    38     5    39    1
    39    39    40    1
    40    39    41    1
    41    41    42    1
    42    41    43    1
    43    43    44    1
    44    43     3    1
    45    19     7   ar
    46    38    20   ar
    47    18    11   ar
    48    35    26    1
    49     1    45    1
    50     2    46    1
    51     2    47    1
    52     3    48    1
    53     5    49    1
    54     8    50    1
    55    10    51    1
    56    15    52    1
    57    19    53    1
    58    21    54    1
    59    23    55    1
    60    26    56    1
    61    28    57    1
    62    29    58    1
    63    29    59    1
    64    30    60    1
    65    31    61    1
    66    32    62    1
    67    33    63    1
    68    34    64    1
    69    35    65    1
    70    36    66    1
    71    37    67    1
    72    38    68    1
    73    39    69    1
    74    40    70    1
    75    41    71    1
    76    42    72    1
    77    43    73    1
    78    44    74    1
