@<TRIPOS>MOLECULE
Quercetin 4'-O-glucoside
 53 56 0 0 0
SMALL
GASTEIGER

@<TRIPOS>ATOM
      1 O          -4.1437   -1.8210    0.8146 O.3     1  UNL1       -0.3924
      2 C          -5.1395   -1.3475    1.6785 C.3     1  UNL1        0.0731
      3 C          -5.6078    0.0716    1.2875 C.3     1  UNL1        0.1140
      4 O          -4.7330    1.0888    1.7609 O.3     1  UNL1       -0.3313
      5 C          -3.5037    1.2019    1.0525 C.3     1  UNL1        0.2310
      6 O          -2.5639    0.2613    1.5836 O.3     1  UNL1       -0.4572
      7 C          -1.2214    0.1118    1.1947 C.ar    1  UNL1        0.1652
      8 C          -0.3849    1.1929    0.8358 C.ar    1  UNL1        0.1592
      9 O          -0.8356    2.5079    0.9171 O.3     1  UNL1       -0.5033
     10 C           0.9334    0.9453    0.4234 C.ar    1  UNL1       -0.0057
     11 C           1.4394   -0.3622    0.3772 C.ar    1  UNL1        0.0247
     12 C           0.6209   -1.4236    0.7928 C.ar    1  UNL1       -0.0473
     13 C          -0.6939   -1.1845    1.1960 C.ar    1  UNL1       -0.0155
     14 C           2.8431   -0.5882   -0.0372 C.ar    1  UNL1        0.1807
     15 C           3.2124   -1.6548   -0.8748 C.ar    1  UNL1        0.2082
     16 O           2.2370   -2.5094   -1.3961 O.3     1  UNL1       -0.5007
     17 C           4.5662   -1.8221   -1.2076 C.ar    1  UNL1        0.2379
     18 O           4.8837   -2.7458   -2.0015 O.2     1  UNL1       -0.2830
     19 C           5.5352   -0.9315   -0.6859 C.ar    1  UNL1        0.1092
     20 C           6.9389   -1.0308   -0.9246 C.ar    1  UNL1        0.1348
     21 O           7.5451   -2.1077   -1.5783 O.3     1  UNL1       -0.5058
     22 C           7.7908   -0.0189   -0.4649 C.ar    1  UNL1        0.0223
     23 C           7.2974    1.0545    0.2808 C.ar    1  UNL1        0.1239
     24 O           8.1543    2.0489    0.7478 O.3     1  UNL1       -0.5065
     25 C           5.9371    1.1288    0.5696 C.ar    1  UNL1        0.0231
     26 C           5.0571    0.1537    0.0938 C.ar    1  UNL1        0.1465
     27 O           3.7665    0.2685    0.3830 O.2     1  UNL1       -0.4507
     28 C          -3.6398    1.0652   -0.4909 C.3     1  UNL1        0.1454
     29 O          -2.8165    2.0150   -1.1200 O.3     1  UNL1       -0.3829
     30 C          -5.0967    1.2782   -0.9155 C.3     1  UNL1        0.1152
     31 O          -5.2263    1.1391   -2.3078 O.3     1  UNL1       -0.3864
     32 C          -5.9777    0.2282   -0.2202 C.3     1  UNL1        0.1120
     33 O          -7.3379    0.5524   -0.3782 O.3     1  UNL1       -0.3865
     34 H          -3.8962   -2.7229    1.1464 H       1  UNL1        0.2095
     35 H          -6.0125   -2.0375    1.6368 H       1  UNL1        0.0584
     36 H          -4.7588   -1.3336    2.7244 H       1  UNL1        0.0584
     37 H          -6.5469    0.2116    1.8672 H       1  UNL1        0.0647
     38 H          -3.1487    2.2258    1.2801 H       1  UNL1        0.1084
     39 H          -0.2431    3.2920    0.6700 H       1  UNL1        0.2923
     40 H           1.5659    1.7781    0.1397 H       1  UNL1        0.0662
     41 H           1.0014   -2.4364    0.8265 H       1  UNL1        0.0626
     42 H          -1.3135   -2.0172    1.5038 H       1  UNL1        0.0655
     43 H           2.4633   -3.2838   -2.0085 H       1  UNL1        0.2924
     44 H           7.1228   -3.0151   -1.7042 H       1  UNL1        0.2922
     45 H           8.8532   -0.0860   -0.6651 H       1  UNL1        0.0691
     46 H           9.1494    2.0233    0.5577 H       1  UNL1        0.2921
     47 H           5.5584    1.9560    1.1576 H       1  UNL1        0.0691
     48 H          -3.3270    0.0373   -0.7937 H       1  UNL1        0.0683
     49 H          -2.5649    1.6442   -2.0060 H       1  UNL1        0.2102
     50 H          -5.4204    2.2994   -0.5989 H       1  UNL1        0.0648
     51 H          -5.0037    2.0194   -2.7093 H       1  UNL1        0.2100
     52 H          -5.8194   -0.7431   -0.7388 H       1  UNL1        0.0647
     53 H          -7.4953    1.4223    0.0748 H       1  UNL1        0.2100
@<TRIPOS>BOND
     1     1     2    1
     2     2     3    1
     3     3     4    1
     4     4     5    1
     5     5     6    1
     6     6     7    1
     7     7     8   ar
     8     8     9    1
     9     8    10   ar
    10    10    11   ar
    11    11    12   ar
    12    12    13   ar
    13    11    14    1
    14    14    15   ar
    15    15    16    1
    16    15    17   ar
    17    17    18    2
    18    17    19   ar
    19    19    20   ar
    20    20    21    1
    21    20    22   ar
    22    22    23   ar
    23    23    24    1
    24    23    25   ar
    25    25    26   ar
    26    26    27   ar
    27     5    28    1
    28    28    29    1
    29    28    30    1
    30    30    31    1
    31    30    32    1
    32    32    33    1
    33    32     3    1
    34    13     7   ar
    35    27    14   ar
    36    26    19   ar
    37     1    34    1
    38     2    35    1
    39     2    36    1
    40     3    37    1
    41     5    38    1
    42     9    39    1
    43    10    40    1
    44    12    41    1
    45    13    42    1
    46    16    43    1
    47    21    44    1
    48    22    45    1
    49    24    46    1
    50    25    47    1
    51    28    48    1
    52    29    49    1
    53    30    50    1
    54    31    51    1
    55    32    52    1
    56    33    53    1
