@<TRIPOS>MOLECULE
Isorhamnetin 4'-O-glucoside
 56 59 0 0 0
SMALL
GASTEIGER

@<TRIPOS>ATOM
      1 C          -1.1782    1.4418   -2.2606 C.3     1  UNL1        0.0790
      2 O          -1.4674    0.3741   -1.3631 O.3     1  UNL1       -0.4914
      3 C          -0.5132   -0.3080   -0.5936 C.ar    1  UNL1        0.1623
      4 C           0.8441    0.0767   -0.6123 C.ar    1  UNL1       -0.0055
      5 C           1.8107   -0.6475    0.1041 C.ar    1  UNL1        0.0247
      6 C           1.4083   -1.7452    0.8727 C.ar    1  UNL1       -0.0473
      7 C           0.0685   -2.1286    0.9076 C.ar    1  UNL1       -0.0155
      8 C          -0.9044   -1.4164    0.1973 C.ar    1  UNL1        0.1654
      9 O          -2.2299   -1.8721    0.3116 O.3     1  UNL1       -0.4572
     10 C          -3.4180   -1.1063    0.1087 C.3     1  UNL1        0.2310
     11 O          -3.3738    0.0388    0.9492 O.3     1  UNL1       -0.3313
     12 C          -4.5264    0.8641    0.8230 C.3     1  UNL1        0.1140
     13 C          -4.5165    1.6661   -0.4967 C.3     1  UNL1        0.0731
     14 O          -5.4348    2.7226   -0.4319 O.3     1  UNL1       -0.3924
     15 C          -5.8387    0.0882    1.1258 C.3     1  UNL1        0.1120
     16 O          -6.9622    0.8981    0.8910 O.3     1  UNL1       -0.3865
     17 C          -5.9398   -1.2231    0.3288 C.3     1  UNL1        0.1152
     18 O          -6.2269   -0.9487   -1.0201 O.3     1  UNL1       -0.3864
     19 C          -4.6212   -2.0010    0.4665 C.3     1  UNL1        0.1454
     20 O          -4.6421   -3.1773   -0.3056 O.3     1  UNL1       -0.3829
     21 C           3.2350   -0.2430    0.1033 C.ar    1  UNL1        0.1807
     22 C           3.9039    0.1360   -1.0766 C.ar    1  UNL1        0.2082
     23 O           3.2428    0.0950   -2.3069 O.3     1  UNL1       -0.5007
     24 C           5.2501    0.5253   -0.9977 C.ar    1  UNL1        0.2379
     25 O           5.8563    0.8774   -2.0461 O.2     1  UNL1       -0.2830
     26 C           5.9082    0.5100    0.2492 C.ar    1  UNL1        0.1092
     27 C           7.2639    0.8837    0.4138 C.ar    1  UNL1        0.1348
     28 O           8.0305    1.3034   -0.6742 O.3     1  UNL1       -0.5058
     29 C           7.8498    0.8326    1.6874 C.ar    1  UNL1        0.0223
     30 C           7.1068    0.4149    2.7974 C.ar    1  UNL1        0.1239
     31 O           7.6886    0.3632    4.0622 O.3     1  UNL1       -0.5065
     32 C           5.7699    0.0462    2.6398 C.ar    1  UNL1        0.0231
     33 C           5.1671    0.0917    1.3794 C.ar    1  UNL1        0.1465
     34 O           3.8921   -0.2597    1.2594 O.2     1  UNL1       -0.4507
     35 H          -0.7767    2.3126   -1.7008 H       1  UNL1        0.0660
     36 H          -2.1137    1.7494   -2.7710 H       1  UNL1        0.0660
     37 H          -0.4497    1.1089   -3.0299 H       1  UNL1        0.0660
     38 H           1.1512    0.9500   -1.1701 H       1  UNL1        0.0662
     39 H           2.1347   -2.3134    1.4412 H       1  UNL1        0.0626
     40 H          -0.2218   -2.9828    1.5065 H       1  UNL1        0.0655
     41 H          -3.4857   -0.8264   -0.9628 H       1  UNL1        0.1084
     42 H          -4.4384    1.6267    1.6283 H       1  UNL1        0.0647
     43 H          -3.4988    2.0890   -0.6406 H       1  UNL1        0.0584
     44 H          -4.7514    1.0214   -1.3684 H       1  UNL1        0.0584
     45 H          -5.3710    3.1982   -1.3007 H       1  UNL1        0.2095
     46 H          -5.8091   -0.1779    2.2097 H       1  UNL1        0.0647
     47 H          -7.7299    0.4653    1.3485 H       1  UNL1        0.2100
     48 H          -6.7619   -1.8334    0.7742 H       1  UNL1        0.0648
     49 H          -6.7255   -1.7293   -1.3774 H       1  UNL1        0.2100
     50 H          -4.5133   -2.3050    1.5316 H       1  UNL1        0.0683
     51 H          -4.5790   -2.9187   -1.2619 H       1  UNL1        0.2102
     52 H           3.6961    0.3525   -3.1754 H       1  UNL1        0.2924
     53 H           9.0016    1.5733   -0.5696 H       1  UNL1        0.2922
     54 H           8.8866    1.1181    1.8143 H       1  UNL1        0.0691
     55 H           8.6564    0.6240    4.2114 H       1  UNL1        0.2921
     56 H           5.1965   -0.2756    3.5006 H       1  UNL1        0.0691
@<TRIPOS>BOND
     1     1     2    1
     2     2     3    1
     3     3     4   ar
     4     4     5   ar
     5     5     6   ar
     6     6     7   ar
     7     7     8   ar
     8     8     9    1
     9     9    10    1
    10    10    11    1
    11    11    12    1
    12    12    13    1
    13    13    14    1
    14    12    15    1
    15    15    16    1
    16    15    17    1
    17    17    18    1
    18    17    19    1
    19    19    20    1
    20     5    21    1
    21    21    22   ar
    22    22    23    1
    23    22    24   ar
    24    24    25    2
    25    24    26   ar
    26    26    27   ar
    27    27    28    1
    28    27    29   ar
    29    29    30   ar
    30    30    31    1
    31    30    32   ar
    32    32    33   ar
    33    33    34   ar
    34     8     3   ar
    35    19    10    1
    36    34    21   ar
    37    33    26   ar
    38     1    35    1
    39     1    36    1
    40     1    37    1
    41     4    38    1
    42     6    39    1
    43     7    40    1
    44    10    41    1
    45    12    42    1
    46    13    43    1
    47    13    44    1
    48    14    45    1
    49    15    46    1
    50    16    47    1
    51    17    48    1
    52    18    49    1
    53    19    50    1
    54    20    51    1
    55    23    52    1
    56    28    53    1
    57    29    54    1
    58    31    55    1
    59    32    56    1
