@<TRIPOS>MOLECULE
3,7-Dimethylquercetin
 38 40 0 0 0
SMALL
GASTEIGER

@<TRIPOS>ATOM
      1 C          -5.0692   -2.6646   -0.2767 C.3     1  UNL1        0.0788
      2 O          -5.1267   -1.2601   -0.0494 O.3     1  UNL1       -0.4949
      3 C          -4.0038   -0.4223    0.0277 C.ar    1  UNL1        0.1271
      4 C          -4.2073    0.9392    0.2532 C.ar    1  UNL1        0.0225
      5 C          -3.1344    1.8353    0.3257 C.ar    1  UNL1        0.1348
      6 O          -3.4597    3.1895    0.4471 O.3     1  UNL1       -0.5058
      7 C          -1.7980    1.3433    0.2423 C.ar    1  UNL1        0.1092
      8 C          -0.6393    2.1324    0.4450 C.ar    1  UNL1        0.2381
      9 O          -0.7411    3.3303    0.8131 O.2     1  UNL1       -0.2830
     10 C           0.6430    1.5559    0.2839 C.ar    1  UNL1        0.2107
     11 O           1.8468    2.2643    0.4757 O.3     1  UNL1       -0.4883
     12 C           1.9798    3.6530    0.7595 C.3     1  UNL1        0.0791
     13 C           0.7217    0.1901   -0.0497 C.ar    1  UNL1        0.1809
     14 O          -0.3842   -0.5351   -0.1555 O.2     1  UNL1       -0.4507
     15 C          -1.6041   -0.0357   -0.0156 C.ar    1  UNL1        0.1465
     16 C          -2.6950   -0.9020   -0.1234 C.ar    1  UNL1        0.0233
     17 C           2.0186   -0.4916   -0.2645 C.ar    1  UNL1        0.0247
     18 C           2.2248   -1.7721    0.2743 C.ar    1  UNL1       -0.0057
     19 C           3.4359   -2.4471    0.0638 C.ar    1  UNL1        0.1589
     20 O           3.6431   -3.7119    0.6113 O.3     1  UNL1       -0.5033
     21 C           4.4444   -1.8490   -0.7020 C.ar    1  UNL1        0.1583
     22 O           5.6474   -2.5219   -0.9082 O.3     1  UNL1       -0.5033
     23 C           4.2360   -0.5809   -1.2598 C.ar    1  UNL1       -0.0159
     24 C           3.0291    0.0913   -1.0494 C.ar    1  UNL1       -0.0473
     25 H          -4.4977   -3.1600    0.5365 H       1  UNL1        0.0660
     26 H          -4.5956   -2.8733   -1.2593 H       1  UNL1        0.0660
     27 H          -6.1005   -3.0729   -0.2858 H       1  UNL1        0.0660
     28 H          -5.2199    1.3143    0.3406 H       1  UNL1        0.0691
     29 H          -2.8446    3.9499    0.1984 H       1  UNL1        0.2922
     30 H           3.0583    3.9100    0.7925 H       1  UNL1        0.0660
     31 H           1.5380    3.8871    1.7507 H       1  UNL1        0.0660
     32 H           1.5020    4.2568   -0.0405 H       1  UNL1        0.0660
     33 H          -2.5094   -1.9509   -0.3134 H       1  UNL1        0.0691
     34 H           1.4496   -2.2419    0.8679 H       1  UNL1        0.0662
     35 H           2.9327   -4.1710    1.1694 H       1  UNL1        0.2923
     36 H           6.3946   -2.1151   -1.4588 H       1  UNL1        0.2923
     37 H           5.0061   -0.1186   -1.8641 H       1  UNL1        0.0655
     38 H           2.8786    1.0552   -1.5187 H       1  UNL1        0.0626
@<TRIPOS>BOND
     1     1     2    1
     2     2     3    1
     3     3     4   ar
     4     4     5   ar
     5     5     6    1
     6     5     7   ar
     7     7     8   ar
     8     8     9    2
     9     8    10   ar
    10    10    11    1
    11    11    12    1
    12    10    13   ar
    13    13    14   ar
    14    14    15   ar
    15    15    16   ar
    16    13    17    1
    17    17    18   ar
    18    18    19   ar
    19    19    20    1
    20    19    21   ar
    21    21    22    1
    22    21    23   ar
    23    23    24   ar
    24    16     3   ar
    25    24    17   ar
    26    15     7   ar
    27     1    25    1
    28     1    26    1
    29     1    27    1
    30     4    28    1
    31     6    29    1
    32    12    30    1
    33    12    31    1
    34    12    32    1
    35    16    33    1
    36    18    34    1
    37    20    35    1
    38    22    36    1
    39    23    37    1
    40    24    38    1
