@<TRIPOS>MOLECULE
Kaempferol 3-O-sophoroside
 73 77 0 0 0
SMALL
GASTEIGER

@<TRIPOS>ATOM
      1 O          -3.2988   -3.1261    0.7834 O.3     1  UNL1       -0.3924
      2 C          -4.1541   -2.2812    1.5060 C.3     1  UNL1        0.0730
      3 C          -3.5078   -0.9026    1.7009 C.3     1  UNL1        0.1130
      4 O          -3.2629   -0.3349    0.4206 O.3     1  UNL1       -0.3405
      5 C          -2.8048    0.9982    0.5440 C.3     1  UNL1        0.1886
      6 O          -2.3279    1.4176   -0.7267 O.3     1  UNL1       -0.3366
      7 C          -0.9815    1.8620   -0.6771 C.3     1  UNL1        0.1519
      8 C          -0.6929    2.7142   -1.9321 C.3     1  UNL1        0.1155
      9 O           0.5381    3.3762   -1.7751 O.3     1  UNL1       -0.3863
     10 C          -0.6375    1.8440   -3.2150 C.3     1  UNL1        0.1120
     11 O          -1.8803    1.8310   -3.8746 O.3     1  UNL1       -0.3865
     12 C          -0.1602    0.3993   -2.9048 C.3     1  UNL1        0.1140
     13 C           0.5861   -0.2202   -4.0942 C.3     1  UNL1        0.0731
     14 O          -0.2735   -0.3849   -5.1905 O.3     1  UNL1       -0.3924
     15 O           0.7141    0.4236   -1.7959 O.3     1  UNL1       -0.3313
     16 C          -0.0046    0.6464   -0.5922 C.3     1  UNL1        0.2315
     17 O           0.9272    0.8842    0.4599 O.3     1  UNL1       -0.4532
     18 C           1.7757   -0.1211    0.9321 C.ar    1  UNL1        0.2138
     19 C           3.0172   -0.3800    0.3185 C.ar    1  UNL1        0.1809
     20 O           3.7708   -1.3853    0.7546 O.2     1  UNL1       -0.4507
     21 C           3.4271   -2.1637    1.7753 C.ar    1  UNL1        0.1465
     22 C           4.2863   -3.1952    2.1649 C.ar    1  UNL1        0.0231
     23 C           3.9505   -4.0270    3.2383 C.ar    1  UNL1        0.1239
     24 O           4.8029   -5.0563    3.6316 O.3     1  UNL1       -0.5065
     25 C           2.7504   -3.8269    3.9246 C.ar    1  UNL1        0.0223
     26 C           1.8737   -2.7985    3.5486 C.ar    1  UNL1        0.1348
     27 O           0.6809   -2.6255    4.2519 O.3     1  UNL1       -0.5058
     28 C           2.2084   -1.9533    2.4638 C.ar    1  UNL1        0.1092
     29 C           1.3783   -0.9045    2.0203 C.ar    1  UNL1        0.2382
     30 O           0.2748   -0.6628    2.5811 O.2     1  UNL1       -0.2830
     31 C           3.5065    0.4197   -0.8256 C.ar    1  UNL1        0.0213
     32 C           3.4045    1.8226   -0.8339 C.ar    1  UNL1       -0.0475
     33 C           3.8351    2.5547   -1.9441 C.ar    1  UNL1       -0.0195
     34 C           4.3829    1.8988   -3.0505 C.ar    1  UNL1        0.1169
     35 O           4.7993    2.6406   -4.1535 O.3     1  UNL1       -0.5068
     36 C           4.5099    0.5036   -3.0384 C.ar    1  UNL1       -0.0195
     37 C           4.0811   -0.2311   -1.9291 C.ar    1  UNL1       -0.0475
     38 C          -3.9785    1.9171    0.9647 C.3     1  UNL1        0.1341
     39 O          -3.4946    2.9772    1.7494 O.3     1  UNL1       -0.3841
     40 C          -5.0506    1.1358    1.7595 C.3     1  UNL1        0.1141
     41 O          -5.9812    0.5847    0.8608 O.3     1  UNL1       -0.3864
     42 C          -4.4084    0.0115    2.5969 C.3     1  UNL1        0.1119
     43 O          -3.6380    0.5900    3.6199 O.3     1  UNL1       -0.3865
     44 H          -3.4220   -2.9061   -0.1768 H       1  UNL1        0.2095
     45 H          -4.3403   -2.7457    2.4981 H       1  UNL1        0.0584
     46 H          -5.1351   -2.1800    0.9868 H       1  UNL1        0.0584
     47 H          -2.5322   -1.0814    2.2098 H       1  UNL1        0.0647
     48 H          -2.0139    1.0434    1.3388 H       1  UNL1        0.0938
     49 H          -0.8353    2.5383    0.1996 H       1  UNL1        0.0687
     50 H          -1.4997    3.4765   -2.0494 H       1  UNL1        0.0648
     51 H           0.3830    4.1364   -1.1554 H       1  UNL1        0.2100
     52 H           0.0879    2.3259   -3.9082 H       1  UNL1        0.0647
     53 H          -2.5482    1.4307   -3.2604 H       1  UNL1        0.2100
     54 H          -1.0351   -0.2613   -2.6910 H       1  UNL1        0.0647
     55 H           1.4738    0.3973   -4.3674 H       1  UNL1        0.0584
     56 H           0.9638   -1.2216   -3.7963 H       1  UNL1        0.0584
     57 H          -0.2341    0.4561   -5.7160 H       1  UNL1        0.2095
     58 H          -0.5717   -0.2790   -0.3398 H       1  UNL1        0.1084
     59 H           5.2168   -3.3490    1.6323 H       1  UNL1        0.0691
     60 H           5.6807   -5.2285    3.1553 H       1  UNL1        0.2921
     61 H           2.4980   -4.4756    4.7541 H       1  UNL1        0.0691
     62 H           0.4290   -3.2244    5.0296 H       1  UNL1        0.2922
     63 H           2.9961    2.3523    0.0173 H       1  UNL1        0.0626
     64 H           3.7424    3.6333   -1.9446 H       1  UNL1        0.0654
     65 H           5.1996    2.1948   -4.9707 H       1  UNL1        0.2921
     66 H           4.9356   -0.0124   -3.8895 H       1  UNL1        0.0654
     67 H           4.1738   -1.3103   -1.9425 H       1  UNL1        0.0626
     68 H          -4.4710    2.3371    0.0549 H       1  UNL1        0.0671
     69 H          -3.0271    3.5996    1.1330 H       1  UNL1        0.2101
     70 H          -5.5818    1.8435    2.4397 H       1  UNL1        0.0648
     71 H          -6.7846    0.3396    1.3905 H       1  UNL1        0.2100
     72 H          -5.2339   -0.5744    3.0671 H       1  UNL1        0.0647
     73 H          -3.4582   -0.1271    4.2829 H       1  UNL1        0.2100
@<TRIPOS>BOND
     1     1     2    1
     2     2     3    1
     3     3     4    1
     4     4     5    1
     5     5     6    1
     6     6     7    1
     7     7     8    1
     8     8     9    1
     9     8    10    1
    10    10    11    1
    11    10    12    1
    12    12    13    1
    13    13    14    1
    14    12    15    1
    15    15    16    1
    16    16    17    1
    17    17    18    1
    18    18    19   ar
    19    19    20   ar
    20    20    21   ar
    21    21    22   ar
    22    22    23   ar
    23    23    24    1
    24    23    25   ar
    25    25    26   ar
    26    26    27    1
    27    26    28   ar
    28    28    29   ar
    29    29    30    2
    30    19    31    1
    31    31    32   ar
    32    32    33   ar
    33    33    34   ar
    34    34    35    1
    35    34    36   ar
    36    36    37   ar
    37     5    38    1
    38    38    39    1
    39    38    40    1
    40    40    41    1
    41    40    42    1
    42    42    43    1
    43    42     3    1
    44    16     7    1
    45    29    18   ar
    46    37    31   ar
    47    28    21   ar
    48     1    44    1
    49     2    45    1
    50     2    46    1
    51     3    47    1
    52     5    48    1
    53     7    49    1
    54     8    50    1
    55     9    51    1
    56    10    52    1
    57    11    53    1
    58    12    54    1
    59    13    55    1
    60    13    56    1
    61    14    57    1
    62    16    58    1
    63    22    59    1
    64    24    60    1
    65    25    61    1
    66    27    62    1
    67    32    63    1
    68    33    64    1
    69    35    65    1
    70    36    66    1
    71    37    67    1
    72    38    68    1
    73    39    69    1
    74    40    70    1
    75    41    71    1
    76    42    72    1
    77    43    73    1
