@<TRIPOS>MOLECULE
Delphinidin 3-O-glucoside
 54 57 0 0 0
SMALL
GASTEIGER

@<TRIPOS>ATOM
      1 O           4.9656   -0.3401   -3.3357 O.3     1  UNL1       -0.3924
      2 C           3.6220   -0.3943   -2.9359 C.3     1  UNL1        0.0731
      3 C           3.4855   -0.1179   -1.4299 C.3     1  UNL1        0.1140
      4 O           2.1023    0.0004   -1.1267 O.3     1  UNL1       -0.3313
      5 C           1.9043    0.0717    0.2715 C.3     1  UNL1        0.2312
      6 O           0.6023    0.5870    0.5686 O.3     1  UNL1       -0.4515
      7 C          -0.6421    0.1049    0.1170 C.ar    1  UNL1        0.2288
      8 C          -0.7619   -0.9254   -0.8307 C.ar    1  UNL1        0.0093
      9 C          -2.0278   -1.3264   -1.2880 C.ar    1  UNL1        0.1241
     10 C          -3.1544   -0.6532   -0.7616 C.ar    1  UNL1        0.3708
     11 C          -4.4416   -0.9948   -1.1845 C.ar    1  UNL1        0.0847
     12 C          -4.6289   -2.0044   -2.1286 C.ar    1  UNL1        0.1293
     13 O          -5.9200   -2.3308   -2.5379 O.3     1  UNL1       -0.5063
     14 C          -3.5220   -2.6794   -2.6549 C.ar    1  UNL1        0.0225
     15 C          -2.2220   -2.3553   -2.2475 C.ar    1  UNL1        0.1366
     16 O          -1.1714   -3.0785   -2.8204 O.3     1  UNL1       -0.5057
     17 O          -3.0059    0.3083    0.1414 O.2     1  UNL1       -0.1997
     18 C          -1.8228    0.6987    0.6055 C.ar    1  UNL1        0.4047
     19 C          -1.7949    1.7714    1.6255 C.ar    1  UNL1        0.0899
     20 C          -2.6444    2.8781    1.4881 C.ar    1  UNL1       -0.0000
     21 C          -2.6563    3.9006    2.4441 C.ar    1  UNL1        0.1628
     22 O          -3.5202    4.9774    2.2333 O.3     1  UNL1       -0.5032
     23 C          -1.8082    3.8103    3.5737 C.ar    1  UNL1        0.2006
     24 O          -1.7654    4.7979    4.5610 O.3     1  UNL1       -0.5009
     25 C          -0.9759    2.6920    3.7244 C.ar    1  UNL1        0.1628
     26 O          -0.1507    2.5948    4.8439 O.3     1  UNL1       -0.5032
     27 C          -0.9750    1.6766    2.7603 C.ar    1  UNL1       -0.0000
     28 C           2.1264   -1.3095    0.9327 C.3     1  UNL1        0.1454
     29 O           2.5192   -1.1304    2.2699 O.3     1  UNL1       -0.3829
     30 C           3.2143   -2.1216    0.1820 C.3     1  UNL1        0.1152
     31 O           2.6358   -3.0631   -0.6893 O.3     1  UNL1       -0.3864
     32 C           4.2135   -1.2121   -0.5759 C.3     1  UNL1        0.1120
     33 O           5.0573   -0.5746    0.3513 O.3     1  UNL1       -0.3865
     34 H           5.2141    0.6205   -3.3702 H       1  UNL1        0.2095
     35 H           3.2176   -1.4002   -3.1751 H       1  UNL1        0.0584
     36 H           3.0243    0.3490   -3.5119 H       1  UNL1        0.0584
     37 H           3.9658    0.8721   -1.2498 H       1  UNL1        0.0647
     38 H           2.6243    0.7986    0.7175 H       1  UNL1        0.1084
     39 H           0.1246   -1.3921   -1.2082 H       1  UNL1        0.0667
     40 H          -5.2996   -0.4742   -0.7770 H       1  UNL1        0.0749
     41 H          -6.0910   -3.0589   -3.2216 H       1  UNL1        0.2921
     42 H          -3.6710   -3.4635   -3.3870 H       1  UNL1        0.0691
     43 H          -0.1955   -2.9430   -2.6012 H       1  UNL1        0.2922
     44 H          -3.2956    2.9561    0.6253 H       1  UNL1        0.0664
     45 H          -3.6112    5.7614    2.8630 H       1  UNL1        0.2923
     46 H          -2.3192    5.6419    4.5417 H       1  UNL1        0.2924
     47 H           0.4634    1.8008    4.9837 H       1  UNL1        0.2923
     48 H          -0.3503    0.8055    2.9121 H       1  UNL1        0.0664
     49 H           1.1826   -1.9010    0.9166 H       1  UNL1        0.0683
     50 H           1.7123   -0.8388    2.7697 H       1  UNL1        0.2102
     51 H           3.7897   -2.7116    0.9295 H       1  UNL1        0.0648
     52 H           2.1208   -2.5708   -1.3768 H       1  UNL1        0.2100
     53 H           4.8382   -1.8609   -1.2351 H       1  UNL1        0.0647
     54 H           5.7189   -1.2493    0.6566 H       1  UNL1        0.2100
@<TRIPOS>UNITY_ATOM_ATTR
17 1
charge 1
@<TRIPOS>BOND
     1     1     2    1
     2     2     3    1
     3     3     4    1
     4     4     5    1
     5     5     6    1
     6     6     7    1
     7     7     8   ar
     8     8     9   ar
     9     9    10   ar
    10    10    11   ar
    11    11    12   ar
    12    12    13    1
    13    12    14   ar
    14    14    15   ar
    15    15    16    1
    16    10    17   ar
    17    17    18   ar
    18    18    19    1
    19    19    20   ar
    20    20    21   ar
    21    21    22    1
    22    21    23   ar
    23    23    24    1
    24    23    25   ar
    25    25    26    1
    26    25    27   ar
    27     5    28    1
    28    28    29    1
    29    28    30    1
    30    30    31    1
    31    30    32    1
    32    32    33    1
    33    32     3    1
    34    18     7   ar
    35    27    19   ar
    36    15     9   ar
    37     1    34    1
    38     2    35    1
    39     2    36    1
    40     3    37    1
    41     5    38    1
    42     8    39    1
    43    11    40    1
    44    13    41    1
    45    14    42    1
    46    16    43    1
    47    20    44    1
    48    22    45    1
    49    24    46    1
    50    26    47    1
    51    27    48    1
    52    28    49    1
    53    29    50    1
    54    30    51    1
    55    31    52    1
    56    32    53    1
    57    33    54    1
