@<TRIPOS>MOLECULE
Kaempferol 3,7-O-diglucoside
 73 77 0 0 0
SMALL
GASTEIGER

@<TRIPOS>ATOM
      1 O           6.6737   -1.8042    2.7792 O.3     1  UNL1       -0.3924
      2 C           5.6794   -0.9114    2.3544 C.3     1  UNL1        0.0731
      3 C           6.0630   -0.2473    1.0235 C.3     1  UNL1        0.1140
      4 O           4.9905    0.5823    0.6173 O.3     1  UNL1       -0.3313
      5 C           5.1492    0.9737   -0.7393 C.3     1  UNL1        0.2308
      6 O           4.1254    1.9143   -1.0652 O.3     1  UNL1       -0.4606
      7 C           2.7483    1.6400   -1.0644 C.ar    1  UNL1        0.1310
      8 C           1.8680    2.6823   -1.3649 C.ar    1  UNL1        0.0226
      9 C           0.4811    2.4763   -1.3804 C.ar    1  UNL1        0.1348
     10 O          -0.3622    3.5460   -1.6844 O.3     1  UNL1       -0.5058
     11 C          -0.0430    1.1938   -1.0879 C.ar    1  UNL1        0.1092
     12 C          -1.4248    0.9053   -1.0940 C.ar    1  UNL1        0.2382
     13 O          -2.2540    1.8066   -1.3876 O.2     1  UNL1       -0.2830
     14 C          -1.8678   -0.4025   -0.7863 C.ar    1  UNL1        0.2138
     15 O          -3.2211   -0.7962   -0.8082 O.3     1  UNL1       -0.4532
     16 C          -4.3640    0.0500   -0.9146 C.3     1  UNL1        0.2311
     17 O          -4.3771    0.9508    0.1799 O.3     1  UNL1       -0.3313
     18 C          -5.4349    1.8865    0.0464 C.3     1  UNL1        0.1140
     19 C          -5.2658    2.9470    1.1470 C.3     1  UNL1        0.0731
     20 O          -6.1309    4.0324    0.9456 O.3     1  UNL1       -0.3924
     21 C          -6.8011    1.1617    0.1563 C.3     1  UNL1        0.1120
     22 O          -7.8561    2.0687   -0.0451 O.3     1  UNL1       -0.3865
     23 C          -6.8858    0.0589   -0.9163 C.3     1  UNL1        0.1152
     24 O          -8.0511   -0.7115   -0.7552 O.3     1  UNL1       -0.3864
     25 C          -5.6265   -0.8311   -0.8769 C.3     1  UNL1        0.1454
     26 O          -5.6306   -1.7558   -1.9364 O.3     1  UNL1       -0.3829
     27 C          -0.8980   -1.3771   -0.4736 C.ar    1  UNL1        0.1809
     28 O           0.3939   -1.0688   -0.4994 O.2     1  UNL1       -0.4507
     29 C           0.8502    0.1432   -0.7839 C.ar    1  UNL1        0.1465
     30 C           2.2300    0.3662   -0.7760 C.ar    1  UNL1        0.0235
     31 C          -1.2707   -2.7665   -0.1223 C.ar    1  UNL1        0.0213
     32 C          -2.3156   -3.0387    0.7802 C.ar    1  UNL1       -0.0475
     33 C          -2.6372   -4.3583    1.1114 C.ar    1  UNL1       -0.0195
     34 C          -1.9098   -5.4203    0.5586 C.ar    1  UNL1        0.1169
     35 O          -2.2222   -6.7391    0.8805 O.3     1  UNL1       -0.5068
     36 C          -0.8564   -5.1551   -0.3215 C.ar    1  UNL1       -0.0195
     37 C          -0.5326   -3.8364   -0.6549 C.ar    1  UNL1       -0.0475
     38 C           6.5352    1.6273   -1.0080 C.3     1  UNL1        0.1454
     39 O           7.2946    0.7834   -1.8371 O.3     1  UNL1       -0.3829
     40 C           7.2912    1.8812    0.3145 C.3     1  UNL1        0.1152
     41 O           6.6284    2.8742    1.0574 O.3     1  UNL1       -0.3864
     42 C           7.3718    0.5871    1.1532 C.3     1  UNL1        0.1120
     43 O           8.4677   -0.1755    0.7138 O.3     1  UNL1       -0.3865
     44 H           6.5963   -2.6102    2.2046 H       1  UNL1        0.2095
     45 H           4.7099   -1.4484    2.2397 H       1  UNL1        0.0584
     46 H           5.5367   -0.1341    3.1354 H       1  UNL1        0.0584
     47 H           6.2095   -1.0690    0.2813 H       1  UNL1        0.0647
     48 H           5.0226    0.0879   -1.4044 H       1  UNL1        0.1084
     49 H           2.2676    3.6639   -1.5880 H       1  UNL1        0.0691
     50 H           0.0007    4.4685   -1.8949 H       1  UNL1        0.2922
     51 H          -4.3210    0.5886   -1.8895 H       1  UNL1        0.1084
     52 H          -5.3638    2.4111   -0.9360 H       1  UNL1        0.0647
     53 H          -4.2109    3.3057    1.1624 H       1  UNL1        0.0584
     54 H          -5.4756    2.4979    2.1413 H       1  UNL1        0.0584
     55 H          -5.7497    4.5662    0.2003 H       1  UNL1        0.2095
     56 H          -6.8743    0.6824    1.1633 H       1  UNL1        0.0647
     57 H          -8.2054    2.3174    0.8503 H       1  UNL1        0.2100
     58 H          -6.9398    0.5503   -1.9137 H       1  UNL1        0.0648
     59 H          -8.0024   -1.1515    0.1336 H       1  UNL1        0.2100
     60 H          -5.6188   -1.4031    0.0777 H       1  UNL1        0.0683
     61 H          -5.6128   -1.2421   -2.7860 H       1  UNL1        0.2102
     62 H           2.8861   -0.4614   -0.5426 H       1  UNL1        0.0691
     63 H          -2.8691   -2.2334    1.2463 H       1  UNL1        0.0626
     64 H          -3.4458   -4.5537    1.8042 H       1  UNL1        0.0654
     65 H          -2.9788   -6.9640    1.5159 H       1  UNL1        0.2921
     66 H          -0.2869   -5.9717   -0.7468 H       1  UNL1        0.0654
     67 H           0.2866   -3.6508   -1.3390 H       1  UNL1        0.0626
     68 H           6.3883    2.6030   -1.5297 H       1  UNL1        0.0683
     69 H           8.0400    1.3294   -2.2008 H       1  UNL1        0.2102
     70 H           8.3274    2.2300    0.0912 H       1  UNL1        0.0648
     71 H           6.8274    3.7429    0.6197 H       1  UNL1        0.2100
     72 H           7.5406    0.8916    2.2142 H       1  UNL1        0.0647
     73 H           8.7132   -0.7863    1.4562 H       1  UNL1        0.2100
@<TRIPOS>BOND
     1     1     2    1
     2     2     3    1
     3     3     4    1
     4     4     5    1
     5     5     6    1
     6     6     7    1
     7     7     8   ar
     8     8     9   ar
     9     9    10    1
    10     9    11   ar
    11    11    12   ar
    12    12    13    2
    13    12    14   ar
    14    14    15    1
    15    15    16    1
    16    16    17    1
    17    17    18    1
    18    18    19    1
    19    19    20    1
    20    18    21    1
    21    21    22    1
    22    21    23    1
    23    23    24    1
    24    23    25    1
    25    25    26    1
    26    14    27   ar
    27    27    28   ar
    28    28    29   ar
    29    29    30   ar
    30    27    31    1
    31    31    32   ar
    32    32    33   ar
    33    33    34   ar
    34    34    35    1
    35    34    36   ar
    36    36    37   ar
    37     5    38    1
    38    38    39    1
    39    38    40    1
    40    40    41    1
    41    40    42    1
    42    42    43    1
    43    42     3    1
    44    30     7   ar
    45    37    31   ar
    46    29    11   ar
    47    25    16    1
    48     1    44    1
    49     2    45    1
    50     2    46    1
    51     3    47    1
    52     5    48    1
    53     8    49    1
    54    10    50    1
    55    16    51    1
    56    18    52    1
    57    19    53    1
    58    19    54    1
    59    20    55    1
    60    21    56    1
    61    22    57    1
    62    23    58    1
    63    24    59    1
    64    25    60    1
    65    26    61    1
    66    30    62    1
    67    32    63    1
    68    33    64    1
    69    35    65    1
    70    36    66    1
    71    37    67    1
    72    38    68    1
    73    39    69    1
    74    40    70    1
    75    41    71    1
    76    42    72    1
    77    43    73    1
