@<TRIPOS>MOLECULE
Kaempferol 3-O-sophoroside 7-O-glucoside
 94 99 0 0 0
SMALL
GASTEIGER

@<TRIPOS>ATOM
      1 O          -4.5584    2.3086    3.4275 O.3     1  UNL1       -0.3924
      2 C          -4.0752    1.2261    2.6774 C.3     1  UNL1        0.0730
      3 C          -5.1156    0.7533    1.6463 C.3     1  UNL1        0.1130
      4 O          -4.4672   -0.1671    0.7780 O.3     1  UNL1       -0.3405
      5 C          -5.3916   -0.7474   -0.1274 C.3     1  UNL1        0.1886
      6 O          -4.6972   -1.3988   -1.1766 O.3     1  UNL1       -0.3366
      7 C          -3.9417   -0.4830   -1.9588 C.3     1  UNL1        0.1519
      8 C          -4.1765   -0.7979   -3.4532 C.3     1  UNL1        0.1155
      9 O          -3.9604    0.3646   -4.2155 O.3     1  UNL1       -0.3863
     10 C          -3.2222   -1.9189   -3.9140 C.3     1  UNL1        0.1120
     11 O          -3.4393   -2.2213   -5.2700 O.3     1  UNL1       -0.3865
     12 C          -1.7319   -1.5252   -3.6282 C.3     1  UNL1        0.1140
     13 C          -0.9448   -1.1582   -4.8961 C.3     1  UNL1        0.0731
     14 O          -0.7345   -2.2970   -5.6853 O.3     1  UNL1       -0.3924
     15 O          -1.6333   -0.4246   -2.7361 O.3     1  UNL1       -0.3313
     16 C          -2.4423   -0.6218   -1.5922 C.3     1  UNL1        0.2315
     17 O          -2.1123    0.3596   -0.6133 O.3     1  UNL1       -0.4532
     18 C          -0.8492    0.4177   -0.0195 C.ar    1  UNL1        0.2138
     19 C           0.2006    1.1476   -0.6099 C.ar    1  UNL1        0.1809
     20 O           1.4041    1.1445   -0.0445 O.2     1  UNL1       -0.4507
     21 C           1.6772    0.4996    1.0848 C.ar    1  UNL1        0.1465
     22 C           2.9729    0.5594    1.6048 C.ar    1  UNL1        0.0235
     23 C           3.2944   -0.1115    2.7977 C.ar    1  UNL1        0.1310
     24 O           4.5826   -0.0863    3.3555 O.3     1  UNL1       -0.4606
     25 C           5.7150    0.5632    2.7747 C.3     1  UNL1        0.2308
     26 O           6.0001   -0.0598    1.5278 O.3     1  UNL1       -0.3313
     27 C           7.2538    0.3640    1.0264 C.3     1  UNL1        0.1140
     28 C           7.3600   -0.0408   -0.4468 C.3     1  UNL1        0.0731
     29 O           6.3439    0.5844   -1.1811 O.3     1  UNL1       -0.3924
     30 C           8.4044   -0.2621    1.8658 C.3     1  UNL1        0.1120
     31 O           9.4956    0.6223    1.9066 O.3     1  UNL1       -0.3865
     32 C           7.9394   -0.5591    3.3096 C.3     1  UNL1        0.1152
     33 O           7.3567   -1.8385    3.3573 O.3     1  UNL1       -0.3864
     34 C           6.9185    0.5042    3.7622 C.3     1  UNL1        0.1454
     35 O           6.4792    0.2464    5.0724 O.3     1  UNL1       -0.3829
     36 C           2.3009   -0.8344    3.4640 C.ar    1  UNL1        0.0226
     37 C           0.9953   -0.9059    2.9575 C.ar    1  UNL1        0.1348
     38 O           0.0321   -1.6393    3.6516 O.3     1  UNL1       -0.5058
     39 C           0.6724   -0.2369    1.7544 C.ar    1  UNL1        0.1092
     40 C          -0.6118   -0.2706    1.1748 C.ar    1  UNL1        0.2382
     41 O          -1.5523   -0.9196    1.7085 O.2     1  UNL1       -0.2830
     42 C           0.0176    1.9034   -1.8687 C.ar    1  UNL1        0.0213
     43 C           1.0030    1.8321   -2.8666 C.ar    1  UNL1       -0.0475
     44 C           0.8306    2.5046   -4.0799 C.ar    1  UNL1       -0.0195
     45 C          -0.3223    3.2685   -4.3036 C.ar    1  UNL1        0.1169
     46 O          -0.5081    3.9374   -5.5112 O.3     1  UNL1       -0.5068
     47 C          -1.2956    3.3638   -3.3046 C.ar    1  UNL1       -0.0195
     48 C          -1.1260    2.6925   -2.0903 C.ar    1  UNL1       -0.0475
     49 C          -6.2846   -1.7709    0.6229 C.3     1  UNL1        0.1341
     50 O          -5.7603   -3.0695    0.4930 O.3     1  UNL1       -0.3841
     51 C          -6.4292   -1.4007    2.1216 C.3     1  UNL1        0.1141
     52 O          -5.3700   -1.9727    2.8528 O.3     1  UNL1       -0.3864
     53 C          -6.4117    0.1359    2.2814 C.3     1  UNL1        0.1119
     54 O          -6.6368    0.5358    3.6127 O.3     1  UNL1       -0.3865
     55 H          -4.5192    3.1053    2.8364 H       1  UNL1        0.2095
     56 H          -3.1385    1.5244    2.1524 H       1  UNL1        0.0584
     57 H          -3.8111    0.3930    3.3624 H       1  UNL1        0.0584
     58 H          -5.4057    1.6519    1.0539 H       1  UNL1        0.0647
     59 H          -6.0639    0.0314   -0.5684 H       1  UNL1        0.0938
     60 H          -4.2525    0.5807   -1.8047 H       1  UNL1        0.0687
     61 H          -5.2333   -1.1327   -3.5827 H       1  UNL1        0.0648
     62 H          -4.4223    0.2319   -5.0841 H       1  UNL1        0.2100
     63 H          -3.4484   -2.8277   -3.3064 H       1  UNL1        0.0647
     64 H          -4.3069   -2.7014   -5.3233 H       1  UNL1        0.2100
     65 H          -1.2128   -2.3994   -3.1711 H       1  UNL1        0.0647
     66 H           0.0423   -0.7358   -4.6006 H       1  UNL1        0.0584
     67 H          -1.4953   -0.3823   -5.4745 H       1  UNL1        0.0584
     68 H          -0.2436   -1.9869   -6.4901 H       1  UNL1        0.2095
     69 H          -2.2499   -1.6288   -1.1494 H       1  UNL1        0.1084
     70 H           3.7183    1.1325    1.0705 H       1  UNL1        0.0691
     71 H           5.4533    1.6331    2.6076 H       1  UNL1        0.1084
     72 H           7.3258    1.4783    1.0641 H       1  UNL1        0.0647
     73 H           7.2613   -1.1461   -0.5399 H       1  UNL1        0.0584
     74 H           8.3506    0.2681   -0.8494 H       1  UNL1        0.0584
     75 H           6.4554    0.2809   -2.1194 H       1  UNL1        0.2095
     76 H           8.7354   -1.2288    1.4157 H       1  UNL1        0.0647
     77 H           9.9530    0.5566    1.0281 H       1  UNL1        0.2100
     78 H           8.8278   -0.5323    3.9849 H       1  UNL1        0.0648
     79 H           7.3751   -2.1304    4.3060 H       1  UNL1        0.2100
     80 H           7.4255    1.4985    3.7417 H       1  UNL1        0.0683
     81 H           7.2352    0.4662    5.6774 H       1  UNL1        0.2102
     82 H           2.5486   -1.3486    4.3844 H       1  UNL1        0.0691
     83 H           0.2501   -2.1232    4.5149 H       1  UNL1        0.2922
     84 H           1.8940    1.2346   -2.7163 H       1  UNL1        0.0626
     85 H           1.5908    2.4275   -4.8467 H       1  UNL1        0.0654
     86 H           0.1786    3.8880   -6.2548 H       1  UNL1        0.2921
     87 H          -2.1837    3.9608   -3.4684 H       1  UNL1        0.0654
     88 H          -1.8840    2.7961   -1.3245 H       1  UNL1        0.0626
     89 H          -7.2941   -1.7404    0.1483 H       1  UNL1        0.0671
     90 H          -6.4808   -3.6969    0.7637 H       1  UNL1        0.2101
     91 H          -7.4096   -1.7944    2.4837 H       1  UNL1        0.0648
     92 H          -5.7412   -2.2788    3.7211 H       1  UNL1        0.2100
     93 H          -7.2747    0.5210    1.6934 H       1  UNL1        0.0647
     94 H          -5.9980    0.0540    4.1976 H       1  UNL1        0.2100
@<TRIPOS>BOND
     1     1     2    1
     2     2     3    1
     3     3     4    1
     4     4     5    1
     5     5     6    1
     6     6     7    1
     7     7     8    1
     8     8     9    1
     9     8    10    1
    10    10    11    1
    11    10    12    1
    12    12    13    1
    13    13    14    1
    14    12    15    1
    15    15    16    1
    16    16    17    1
    17    17    18    1
    18    18    19   ar
    19    19    20   ar
    20    20    21   ar
    21    21    22   ar
    22    22    23   ar
    23    23    24    1
    24    24    25    1
    25    25    26    1
    26    26    27    1
    27    27    28    1
    28    28    29    1
    29    27    30    1
    30    30    31    1
    31    30    32    1
    32    32    33    1
    33    32    34    1
    34    34    35    1
    35    23    36   ar
    36    36    37   ar
    37    37    38    1
    38    37    39   ar
    39    39    40   ar
    40    40    41    2
    41    19    42    1
    42    42    43   ar
    43    43    44   ar
    44    44    45   ar
    45    45    46    1
    46    45    47   ar
    47    47    48   ar
    48     5    49    1
    49    49    50    1
    50    49    51    1
    51    51    52    1
    52    51    53    1
    53    53    54    1
    54    53     3    1
    55    16     7    1
    56    40    18   ar
    57    48    42   ar
    58    39    21   ar
    59    34    25    1
    60     1    55    1
    61     2    56    1
    62     2    57    1
    63     3    58    1
    64     5    59    1
    65     7    60    1
    66     8    61    1
    67     9    62    1
    68    10    63    1
    69    11    64    1
    70    12    65    1
    71    13    66    1
    72    13    67    1
    73    14    68    1
    74    16    69    1
    75    22    70    1
    76    25    71    1
    77    27    72    1
    78    28    73    1
    79    28    74    1
    80    29    75    1
    81    30    76    1
    82    31    77    1
    83    32    78    1
    84    33    79    1
    85    34    80    1
    86    35    81    1
    87    36    82    1
    88    38    83    1
    89    43    84    1
    90    44    85    1
    91    46    86    1
    92    47    87    1
    93    48    88    1
    94    49    89    1
    95    50    90    1
    96    51    91    1
    97    52    92    1
    98    53    93    1
    99    54    94    1
