@<TRIPOS>MOLECULE
Quercetin 3-O-(6"-malonyl-glucoside)
 61 64 0 0 0
SMALL
GASTEIGER

@<TRIPOS>ATOM
      1 O           1.6710   -4.9849   -0.8853 O.3     1  UNL1       -0.3864
      2 C           1.4572   -4.2119    0.2716 C.3     1  UNL1        0.1152
      3 C           2.6773   -3.3018    0.5657 C.3     1  UNL1        0.1130
      4 O           3.4076   -2.9820   -0.5970 O.3     1  UNL1       -0.3864
      5 C           2.2599   -2.0442    1.3795 C.3     1  UNL1        0.1250
      6 C           3.4529   -1.1138    1.6382 C.3     1  UNL1        0.1212
      7 O           3.6872   -0.2860    0.5028 O.3     1  UNL1       -0.4616
      8 C           4.7072    0.6673    0.4611 C.2     1  UNL1        0.3180
      9 O           5.5613    0.7381    1.3869 O.2     1  UNL1       -0.2502
     10 C           4.7571    1.6389   -0.6728 C.3     1  UNL1        0.1418
     11 C           4.2966    2.9861   -0.2157 C.2     1  UNL1        0.3155
     12 O           5.1978    4.0444   -0.1574 O.3     1  UNL1       -0.4802
     13 O           3.0973    3.1611    0.1303 O.2     1  UNL1       -0.2504
     14 O           1.1859   -1.2755    0.8408 O.3     1  UNL1       -0.3302
     15 C           0.3541   -1.9341   -0.1082 C.3     1  UNL1        0.2312
     16 O          -0.9109   -1.2759   -0.1407 O.3     1  UNL1       -0.4532
     17 C          -1.1491    0.0864   -0.4165 C.ar    1  UNL1        0.2138
     18 C          -2.4079    0.6227   -0.0768 C.ar    1  UNL1        0.1810
     19 O          -2.7034    1.8824   -0.3788 O.2     1  UNL1       -0.4507
     20 C          -1.8581    2.7056   -0.9837 C.ar    1  UNL1        0.1465
     21 C          -0.5659    2.2672   -1.3512 C.ar    1  UNL1        0.1092
     22 C           0.3048    3.1707   -2.0104 C.ar    1  UNL1        0.1348
     23 O           1.5796    2.7746   -2.4171 O.3     1  UNL1       -0.5058
     24 C          -0.1181    4.4830   -2.2678 C.ar    1  UNL1        0.0223
     25 C          -1.3941    4.9068   -1.8921 C.ar    1  UNL1        0.1239
     26 O          -1.7904    6.2151   -2.1605 O.3     1  UNL1       -0.5065
     27 C          -2.2626    4.0163   -1.2533 C.ar    1  UNL1        0.0231
     28 C          -0.2114    0.9342   -1.0525 C.ar    1  UNL1        0.2382
     29 O           0.9293    0.5025   -1.3663 O.2     1  UNL1       -0.2830
     30 C          -3.4394   -0.1850    0.6127 C.ar    1  UNL1        0.0247
     31 C          -4.7769   -0.1038    0.1937 C.ar    1  UNL1       -0.0057
     32 C          -5.7732   -0.8447    0.8399 C.ar    1  UNL1        0.1589
     33 O          -7.0887   -0.7502    0.3869 O.3     1  UNL1       -0.5033
     34 C          -5.4376   -1.6673    1.9285 C.ar    1  UNL1        0.1583
     35 O          -6.4246   -2.4097    2.5748 O.3     1  UNL1       -0.5033
     36 C          -4.1075   -1.7339    2.3640 C.ar    1  UNL1       -0.0159
     37 C          -3.1160   -0.9924    1.7172 C.ar    1  UNL1       -0.0473
     38 C           0.1198   -3.4281    0.1898 C.3     1  UNL1        0.1454
     39 O          -0.6563   -3.6033    1.3517 O.3     1  UNL1       -0.3829
     40 H           1.6031   -4.3811   -1.6707 H       1  UNL1        0.2100
     41 H           1.3696   -4.9304    1.1171 H       1  UNL1        0.0648
     42 H           3.3686   -3.8914    1.2086 H       1  UNL1        0.0647
     43 H           2.9207   -2.2829   -1.0983 H       1  UNL1        0.2100
     44 H           1.9401   -2.4075    2.3806 H       1  UNL1        0.0658
     45 H           3.2211   -0.4654    2.5117 H       1  UNL1        0.0724
     46 H           4.3650   -1.7040    1.8770 H       1  UNL1        0.0724
     47 H           5.7968    1.7043   -1.0590 H       1  UNL1        0.0493
     48 H           4.1029    1.2875   -1.4993 H       1  UNL1        0.0493
     49 H           4.9021    4.9616    0.1549 H       1  UNL1        0.2951
     50 H           0.7962   -1.8679   -1.1216 H       1  UNL1        0.1084
     51 H           2.2123    3.4117   -2.8870 H       1  UNL1        0.2922
     52 H           0.5467    5.1767   -2.7673 H       1  UNL1        0.0691
     53 H          -2.7096    6.5540   -1.9016 H       1  UNL1        0.2921
     54 H          -3.2544    4.3423   -0.9646 H       1  UNL1        0.0691
     55 H          -5.0467    0.5263   -0.6456 H       1  UNL1        0.0662
     56 H          -7.8454   -1.2655    0.8204 H       1  UNL1        0.2923
     57 H          -6.2074   -3.0089    3.3626 H       1  UNL1        0.2923
     58 H          -3.8419   -2.3547    3.2102 H       1  UNL1        0.0655
     59 H          -2.1019   -1.0346    2.0941 H       1  UNL1        0.0626
     60 H          -0.4812   -3.8410   -0.6506 H       1  UNL1        0.0683
     61 H          -0.1681   -3.2040    2.1151 H       1  UNL1        0.2102
@<TRIPOS>BOND
     1     1     2    1
     2     2     3    1
     3     3     4    1
     4     3     5    1
     5     5     6    1
     6     6     7    1
     7     7     8    1
     8     8     9    2
     9     8    10    1
    10    10    11    1
    11    11    12    1
    12    11    13    2
    13     5    14    1
    14    14    15    1
    15    15    16    1
    16    16    17    1
    17    17    18   ar
    18    18    19   ar
    19    19    20   ar
    20    20    21   ar
    21    21    22   ar
    22    22    23    1
    23    22    24   ar
    24    24    25   ar
    25    25    26    1
    26    25    27   ar
    27    21    28   ar
    28    28    29    2
    29    18    30    1
    30    30    31   ar
    31    31    32   ar
    32    32    33    1
    33    32    34   ar
    34    34    35    1
    35    34    36   ar
    36    36    37   ar
    37    15    38    1
    38    38    39    1
    39    38     2    1
    40    28    17   ar
    41    37    30   ar
    42    27    20   ar
    43     1    40    1
    44     2    41    1
    45     3    42    1
    46     4    43    1
    47     5    44    1
    48     6    45    1
    49     6    46    1
    50    10    47    1
    51    10    48    1
    52    12    49    1
    53    15    50    1
    54    23    51    1
    55    24    52    1
    56    26    53    1
    57    27    54    1
    58    31    55    1
    59    33    56    1
    60    35    57    1
    61    36    58    1
    62    37    59    1
    63    38    60    1
    64    39    61    1
