@<TRIPOS>MOLECULE
Kaempferol 3-O-(6"-malonyl-glucoside)
 60 63 0 0 0
SMALL
GASTEIGER

@<TRIPOS>ATOM
      1 C           2.7185   -0.1954    0.3364 C.3     1  UNL1        0.1250
      2 C           3.7688    0.5670    1.1495 C.3     1  UNL1        0.1212
      3 O           5.0702    0.0696    0.8531 O.3     1  UNL1       -0.4616
      4 C           6.2293    0.5968    1.4282 C.2     1  UNL1        0.3180
      5 O           6.1647    1.5556    2.2454 O.2     1  UNL1       -0.2502
      6 C           7.5592    0.0458    1.0311 C.3     1  UNL1        0.1418
      7 C           7.9862    0.6423   -0.2701 C.2     1  UNL1        0.3155
      8 O           8.7153    1.8271   -0.2830 O.3     1  UNL1       -0.4802
      9 O           7.6522    0.0957   -1.3554 O.2     1  UNL1       -0.2504
     10 O           1.4355    0.2867    0.6857 O.3     1  UNL1       -0.3302
     11 C           0.4231   -0.6126    0.2562 C.3     1  UNL1        0.2312
     12 O          -0.8329    0.0483    0.4311 O.3     1  UNL1       -0.4532
     13 C          -2.1320   -0.4877    0.2921 C.ar    1  UNL1        0.2138
     14 C          -3.2170    0.4099    0.2917 C.ar    1  UNL1        0.1809
     15 O          -4.4620   -0.0462    0.2460 O.2     1  UNL1       -0.4507
     16 C          -4.7663   -1.3319    0.1430 C.ar    1  UNL1        0.1465
     17 C          -6.1139   -1.7001    0.1254 C.ar    1  UNL1        0.0231
     18 C          -6.4789   -3.0405    0.0280 C.ar    1  UNL1        0.1239
     19 O          -7.8281   -3.3880    0.0352 O.3     1  UNL1       -0.5065
     20 C          -5.4909   -4.0215   -0.0868 C.ar    1  UNL1        0.0223
     21 C          -4.1337   -3.6779   -0.1118 C.ar    1  UNL1        0.1348
     22 O          -3.2291   -4.7189   -0.3407 O.3     1  UNL1       -0.5058
     23 C          -3.7485   -2.3139    0.0579 C.ar    1  UNL1        0.1092
     24 C          -2.4104   -1.8717    0.1959 C.ar    1  UNL1        0.2382
     25 O          -1.4742   -2.7044    0.2879 O.2     1  UNL1       -0.2830
     26 C          -3.0189    1.8750    0.3649 C.ar    1  UNL1        0.0213
     27 C          -3.8340    2.6437    1.2119 C.ar    1  UNL1       -0.0475
     28 C          -3.6743    4.0312    1.2793 C.ar    1  UNL1       -0.0195
     29 C          -2.7083    4.6679    0.4889 C.ar    1  UNL1        0.1169
     30 O          -2.5392    6.0493    0.5486 O.3     1  UNL1       -0.5068
     31 C          -1.9087    3.9108   -0.3726 C.ar    1  UNL1       -0.0195
     32 C          -2.0665    2.5235   -0.4419 C.ar    1  UNL1       -0.0475
     33 C           0.5990   -1.0466   -1.2351 C.3     1  UNL1        0.1454
     34 O           1.0407   -2.3799   -1.2792 O.3     1  UNL1       -0.3829
     35 C           1.6052   -0.1328   -1.9725 C.3     1  UNL1        0.1152
     36 O           1.0456    1.1478   -2.1269 O.3     1  UNL1       -0.3864
     37 C           2.9385   -0.0119   -1.1896 C.3     1  UNL1        0.1130
     38 O           3.8961   -0.9234   -1.6712 O.3     1  UNL1       -0.3864
     39 H           2.8165   -1.2725    0.6150 H       1  UNL1        0.0658
     40 H           3.7168    1.6533    0.9153 H       1  UNL1        0.0724
     41 H           3.5616    0.4295    2.2333 H       1  UNL1        0.0724
     42 H           8.3163    0.2739    1.8121 H       1  UNL1        0.0493
     43 H           7.4876   -1.0590    0.9350 H       1  UNL1        0.0493
     44 H           8.9982    2.2533   -1.1574 H       1  UNL1        0.2951
     45 H           0.4558   -1.4930    0.9344 H       1  UNL1        0.1084
     46 H          -6.8817   -0.9396    0.2003 H       1  UNL1        0.0691
     47 H          -8.1272   -4.3535   -0.0373 H       1  UNL1        0.2921
     48 H          -5.7793   -5.0601   -0.1928 H       1  UNL1        0.0691
     49 H          -2.2918   -4.5931   -0.6935 H       1  UNL1        0.2922
     50 H          -4.5855    2.1678    1.8301 H       1  UNL1        0.0626
     51 H          -4.3022    4.6100    1.9445 H       1  UNL1        0.0654
     52 H          -3.1040    6.6257    1.1615 H       1  UNL1        0.2921
     53 H          -1.1700    4.3988   -0.9956 H       1  UNL1        0.0654
     54 H          -1.4609    1.9618   -1.1408 H       1  UNL1        0.0626
     55 H          -0.3827   -0.9803   -1.7599 H       1  UNL1        0.0683
     56 H           0.8751   -2.7099   -2.2010 H       1  UNL1        0.2102
     57 H           1.8181   -0.5558   -2.9830 H       1  UNL1        0.0648
     58 H           0.3780    1.0857   -2.8594 H       1  UNL1        0.2100
     59 H           3.3433    1.0075   -1.3793 H       1  UNL1        0.0647
     60 H           3.5375   -1.8392   -1.5428 H       1  UNL1        0.2100
@<TRIPOS>BOND
     1     1     2    1
     2     2     3    1
     3     3     4    1
     4     4     5    2
     5     4     6    1
     6     6     7    1
     7     7     8    1
     8     7     9    2
     9     1    10    1
    10    10    11    1
    11    11    12    1
    12    12    13    1
    13    13    14   ar
    14    14    15   ar
    15    15    16   ar
    16    16    17   ar
    17    17    18   ar
    18    18    19    1
    19    18    20   ar
    20    20    21   ar
    21    21    22    1
    22    21    23   ar
    23    23    24   ar
    24    24    25    2
    25    14    26    1
    26    26    27   ar
    27    27    28   ar
    28    28    29   ar
    29    29    30    1
    30    29    31   ar
    31    31    32   ar
    32    11    33    1
    33    33    34    1
    34    33    35    1
    35    35    36    1
    36    35    37    1
    37    37    38    1
    38    37     1    1
    39    24    13   ar
    40    32    26   ar
    41    23    16   ar
    42     1    39    1
    43     2    40    1
    44     2    41    1
    45     6    42    1
    46     6    43    1
    47     8    44    1
    48    11    45    1
    49    17    46    1
    50    19    47    1
    51    20    48    1
    52    22    49    1
    53    27    50    1
    54    28    51    1
    55    30    52    1
    56    31    53    1
    57    32    54    1
    58    33    55    1
    59    34    56    1
    60    35    57    1
    61    36    58    1
    62    37    59    1
    63    38    60    1
