@<TRIPOS>MOLECULE
Kaempferol 3-O-rhamnoside
 50 53 0 0 0
SMALL
GASTEIGER

@<TRIPOS>ATOM
      1 C          -2.3044    3.4908    1.7001 C.3     1  UNL1       -0.0360
      2 C          -2.2976    2.1887    0.8980 C.3     1  UNL1        0.0883
      3 O          -1.1131    2.1535    0.1199 O.3     1  UNL1       -0.3339
      4 C          -0.9644    0.8898   -0.5017 C.3     1  UNL1        0.2311
      5 O           0.3075    0.8496   -1.1498 O.3     1  UNL1       -0.4532
      6 C           1.1396   -0.2775   -1.1295 C.ar    1  UNL1        0.2136
      7 C           1.6400   -0.8186    0.0757 C.ar    1  UNL1        0.1809
      8 O           2.3604   -1.9361    0.0477 O.2     1  UNL1       -0.4508
      9 C           2.6805   -2.5686   -1.0757 C.ar    1  UNL1        0.1424
     10 C           3.4445   -3.7377   -1.0066 C.ar    1  UNL1        0.0228
     11 C           3.8057   -4.4159   -2.1763 C.ar    1  UNL1        0.1198
     12 O           4.5675   -5.5806   -2.1146 O.3     1  UNL1       -0.5067
     13 C           3.4012   -3.9225   -3.4191 C.ar    1  UNL1       -0.0270
     14 C           2.6343   -2.7555   -3.5068 C.ar    1  UNL1       -0.0902
     15 O           2.2521   -2.3019   -4.7654 O.co2   1  UNL1       -0.8730
     16 C           2.2631   -2.0640   -2.3299 C.ar    1  UNL1        0.0602
     17 C           1.4807   -0.8922   -2.3385 C.ar    1  UNL1        0.2341
     18 O           1.0641   -0.3945   -3.4200 O.2     1  UNL1       -0.2831
     19 C           1.4014   -0.1779    1.3872 C.ar    1  UNL1        0.0213
     20 C           1.0353   -0.9660    2.4897 C.ar    1  UNL1       -0.0475
     21 C           0.7866   -0.3721    3.7309 C.ar    1  UNL1       -0.0195
     22 C           0.9160    1.0144    3.8866 C.ar    1  UNL1        0.1169
     23 O           0.6631    1.6182    5.1162 O.3     1  UNL1       -0.5068
     24 C           1.3061    1.8008    2.7986 C.ar    1  UNL1       -0.0195
     25 C           1.5573    1.2093    1.5574 C.ar    1  UNL1       -0.0475
     26 C          -2.0761    0.6668   -1.5464 C.3     1  UNL1        0.1454
     27 O          -1.9274    1.5352   -2.6451 O.3     1  UNL1       -0.3829
     28 C          -3.4609    0.8158   -0.8769 C.3     1  UNL1        0.1151
     29 O          -4.4941    0.7657   -1.8301 O.3     1  UNL1       -0.3864
     30 C          -3.5441    2.0955   -0.0125 C.3     1  UNL1        0.1096
     31 O          -4.7035    2.0551    0.7800 O.3     1  UNL1       -0.3866
     32 H          -1.3972    3.5403    2.3394 H       1  UNL1        0.0255
     33 H          -3.1971    3.5394    2.3590 H       1  UNL1        0.0255
     34 H          -2.3061    4.3679    1.0181 H       1  UNL1        0.0255
     35 H          -2.3070    1.3530    1.6375 H       1  UNL1        0.0621
     36 H          -1.0209    0.0752    0.2583 H       1  UNL1        0.1084
     37 H           3.7597   -4.1171   -0.0424 H       1  UNL1        0.0691
     38 H           4.8773   -5.9648   -1.2295 H       1  UNL1        0.2921
     39 H           3.6830   -4.4493   -4.3224 H       1  UNL1        0.0648
     40 H           0.9215   -2.0380    2.3838 H       1  UNL1        0.0626
     41 H           0.4905   -0.9895    4.5694 H       1  UNL1        0.0654
     42 H           0.3789    1.0759    5.9236 H       1  UNL1        0.2921
     43 H           1.4160    2.8715    2.9153 H       1  UNL1        0.0654
     44 H           1.8730    1.8340    0.7314 H       1  UNL1        0.0626
     45 H          -1.9875   -0.3739   -1.9282 H       1  UNL1        0.0683
     46 H          -1.9312    2.4670   -2.3054 H       1  UNL1        0.2102
     47 H          -3.5950   -0.0567   -0.1986 H       1  UNL1        0.0648
     48 H          -4.4493    1.5956   -2.3726 H       1  UNL1        0.2100
     49 H          -3.5674    2.9953   -0.6716 H       1  UNL1        0.0646
     50 H          -5.4624    2.3071    0.1917 H       1  UNL1        0.2100
@<TRIPOS>UNITY_ATOM_ATTR
15 1
charge -1
@<TRIPOS>BOND
     1     1     2    1
     2     2     3    1
     3     3     4    1
     4     4     5    1
     5     5     6    1
     6     6     7   ar
     7     7     8   ar
     8     8     9   ar
     9     9    10   ar
    10    10    11   ar
    11    11    12    1
    12    11    13   ar
    13    13    14   ar
    14    14    15    1
    15    14    16   ar
    16    16    17   ar
    17    17    18    2
    18     7    19    1
    19    19    20   ar
    20    20    21   ar
    21    21    22   ar
    22    22    23    1
    23    22    24   ar
    24    24    25   ar
    25     4    26    1
    26    26    27    1
    27    26    28    1
    28    28    29    1
    29    28    30    1
    30    30    31    1
    31    30     2    1
    32    17     6   ar
    33    25    19   ar
    34    16     9   ar
    35     1    32    1
    36     1    33    1
    37     1    34    1
    38     2    35    1
    39     4    36    1
    40    10    37    1
    41    12    38    1
    42    13    39    1
    43    20    40    1
    44    21    41    1
    45    23    42    1
    46    24    43    1
    47    25    44    1
    48    26    45    1
    49    27    46    1
    50    28    47    1
    51    29    48    1
    52    30    49    1
    53    31    50    1
