@<TRIPOS>MOLECULE
Quercetin 3-O-(6"-malonyl-glucoside) 7-O-glucoside
 82 86 0 0 0
SMALL
GASTEIGER

@<TRIPOS>ATOM
      1 O           7.6296    4.4646   -0.2764 O.3     1  UNL1       -0.3924
      2 C           6.6974    3.4170   -0.3575 C.3     1  UNL1        0.0731
      3 C           7.3560    2.1522   -0.9576 C.3     1  UNL1        0.1140
      4 O           6.4154    1.3259   -1.6386 O.3     1  UNL1       -0.3313
      5 C           5.5698    0.5715   -0.7789 C.3     1  UNL1        0.2308
      6 O           4.6675    1.4415   -0.0853 O.3     1  UNL1       -0.4606
      7 C           3.3686    1.1355    0.3565 C.ar    1  UNL1        0.1310
      8 C           2.7519   -0.1057    0.1355 C.ar    1  UNL1        0.0235
      9 C           1.4493   -0.3415    0.5818 C.ar    1  UNL1        0.1465
     10 C           0.7259    0.6664    1.2688 C.ar    1  UNL1        0.1092
     11 C           1.3790    1.9036    1.5415 C.ar    1  UNL1        0.1348
     12 O           0.8166    2.9325    2.3028 O.3     1  UNL1       -0.5058
     13 C           2.6719    2.1235    1.0531 C.ar    1  UNL1        0.0226
     14 C          -0.6198    0.3779    1.5984 C.ar    1  UNL1        0.2382
     15 O          -1.3723    1.2424    2.1179 O.2     1  UNL1       -0.2830
     16 C          -1.1575   -0.8796    1.3017 C.ar    1  UNL1        0.2138
     17 O          -2.5043   -1.1330    1.5872 O.3     1  UNL1       -0.4532
     18 C          -3.4870   -1.2910    0.5594 C.3     1  UNL1        0.2312
     19 O          -3.6732   -0.0647   -0.1351 O.3     1  UNL1       -0.3302
     20 C          -4.4501    0.8397    0.6284 C.3     1  UNL1        0.1250
     21 C          -4.2784    2.2553    0.0611 C.3     1  UNL1        0.1212
     22 O          -4.5263    2.2616   -1.3421 O.3     1  UNL1       -0.4616
     23 C          -4.4706    3.4248   -2.1139 C.2     1  UNL1        0.3180
     24 O          -4.1859    4.5350   -1.5872 O.2     1  UNL1       -0.2502
     25 C          -4.7982    3.3528   -3.5689 C.3     1  UNL1        0.1418
     26 C          -6.2792    3.2810   -3.7499 C.2     1  UNL1        0.3155
     27 O          -6.9288    2.0537   -3.6611 O.3     1  UNL1       -0.4802
     28 O          -6.9445    4.3340   -3.9412 O.2     1  UNL1       -0.2504
     29 C          -5.9345    0.3732    0.6903 C.3     1  UNL1        0.1130
     30 O          -6.7016    0.9850   -0.3171 O.3     1  UNL1       -0.3864
     31 C          -6.0420   -1.1631    0.5453 C.3     1  UNL1        0.1152
     32 O          -7.2182   -1.6148    1.1660 O.3     1  UNL1       -0.3864
     33 C          -4.8094   -1.8859    1.1306 C.3     1  UNL1        0.1454
     34 O          -4.8296   -1.8849    2.5392 O.3     1  UNL1       -0.3829
     35 C          -0.3329   -1.8517    0.7032 C.ar    1  UNL1        0.1810
     36 O           0.9057   -1.5307    0.3490 O.2     1  UNL1       -0.4507
     37 C          -0.7947   -3.2347    0.4463 C.ar    1  UNL1        0.0247
     38 C          -0.4365   -3.8743   -0.7512 C.ar    1  UNL1       -0.0057
     39 C          -0.8592   -5.1820   -1.0158 C.ar    1  UNL1        0.1589
     40 O          -0.4967   -5.7799   -2.2223 O.3     1  UNL1       -0.5033
     41 C          -1.6378   -5.8698   -0.0698 C.ar    1  UNL1        0.1583
     42 O          -2.0651   -7.1712   -0.3287 O.3     1  UNL1       -0.5033
     43 C          -1.9792   -5.2431    1.1358 C.ar    1  UNL1       -0.0159
     44 C          -1.5544   -3.9385    1.3971 C.ar    1  UNL1       -0.0473
     45 C           6.3855   -0.3181    0.1871 C.3     1  UNL1        0.1454
     46 O           5.5474   -1.0757    1.0247 O.3     1  UNL1       -0.3829
     47 C           7.3856    0.5242    0.9980 C.3     1  UNL1        0.1152
     48 O           8.2210   -0.3199    1.7483 O.3     1  UNL1       -0.3864
     49 C           8.2409    1.3506    0.0294 C.3     1  UNL1        0.1120
     50 O           9.0864    2.2178    0.7414 O.3     1  UNL1       -0.3865
     51 H           7.8817    4.5637    0.6785 H       1  UNL1        0.2095
     52 H           5.8776    3.7473   -1.0304 H       1  UNL1        0.0584
     53 H           6.2438    3.2097    0.6379 H       1  UNL1        0.0584
     54 H           8.0480    2.5215   -1.7468 H       1  UNL1        0.0647
     55 H           4.9909   -0.0952   -1.4495 H       1  UNL1        0.1084
     56 H           3.2647   -0.9033   -0.3814 H       1  UNL1        0.0691
     57 H           0.0417    2.8208    2.9386 H       1  UNL1        0.2922
     58 H           3.1567    3.0732    1.2450 H       1  UNL1        0.0691
     59 H          -3.1067   -2.0180   -0.1891 H       1  UNL1        0.1084
     60 H          -4.0592    0.8966    1.6710 H       1  UNL1        0.0658
     61 H          -4.9745    2.9547    0.5746 H       1  UNL1        0.0724
     62 H          -3.2364    2.5970    0.2469 H       1  UNL1        0.0724
     63 H          -4.3916    4.2415   -4.0993 H       1  UNL1        0.0493
     64 H          -4.3281    2.4468   -4.0068 H       1  UNL1        0.0493
     65 H          -7.9348    1.9898   -3.7615 H       1  UNL1        0.2951
     66 H          -6.3339    0.6790    1.6867 H       1  UNL1        0.0647
     67 H          -7.6543    0.8831   -0.0564 H       1  UNL1        0.2100
     68 H          -6.0851   -1.4026   -0.5446 H       1  UNL1        0.0648
     69 H          -7.3871   -2.5326    0.8270 H       1  UNL1        0.2100
     70 H          -4.8679   -2.9511    0.8136 H       1  UNL1        0.0683
     71 H          -4.8256   -0.9439    2.8493 H       1  UNL1        0.2102
     72 H           0.1593   -3.3518   -1.4902 H       1  UNL1        0.0662
     73 H          -0.7773   -6.7235   -2.4609 H       1  UNL1        0.2923
     74 H          -2.6266   -7.6878    0.3381 H       1  UNL1        0.2923
     75 H          -2.5697   -5.7693    1.8750 H       1  UNL1        0.0655
     76 H          -1.8095   -3.4857    2.3466 H       1  UNL1        0.0626
     77 H           6.9654   -1.0366   -0.4342 H       1  UNL1        0.0683
     78 H           5.1750   -0.4697    1.7168 H       1  UNL1        0.2102
     79 H           6.8387    1.2167    1.6800 H       1  UNL1        0.0648
     80 H           7.7120   -0.5837    2.5589 H       1  UNL1        0.2100
     81 H           8.8607    0.6496   -0.5806 H       1  UNL1        0.0647
     82 H           9.8482    1.6743    1.0728 H       1  UNL1        0.2100
@<TRIPOS>BOND
     1     1     2    1
     2     2     3    1
     3     3     4    1
     4     4     5    1
     5     5     6    1
     6     6     7    1
     7     7     8   ar
     8     8     9   ar
     9     9    10   ar
    10    10    11   ar
    11    11    12    1
    12    11    13   ar
    13    10    14   ar
    14    14    15    2
    15    14    16   ar
    16    16    17    1
    17    17    18    1
    18    18    19    1
    19    19    20    1
    20    20    21    1
    21    21    22    1
    22    22    23    1
    23    23    24    2
    24    23    25    1
    25    25    26    1
    26    26    27    1
    27    26    28    2
    28    20    29    1
    29    29    30    1
    30    29    31    1
    31    31    32    1
    32    31    33    1
    33    33    34    1
    34    16    35   ar
    35    35    36   ar
    36    35    37    1
    37    37    38   ar
    38    38    39   ar
    39    39    40    1
    40    39    41   ar
    41    41    42    1
    42    41    43   ar
    43    43    44   ar
    44     5    45    1
    45    45    46    1
    46    45    47    1
    47    47    48    1
    48    47    49    1
    49    49    50    1
    50    49     3    1
    51    13     7   ar
    52    33    18    1
    53    44    37   ar
    54    36     9   ar
    55     1    51    1
    56     2    52    1
    57     2    53    1
    58     3    54    1
    59     5    55    1
    60     8    56    1
    61    12    57    1
    62    13    58    1
    63    18    59    1
    64    20    60    1
    65    21    61    1
    66    21    62    1
    67    25    63    1
    68    25    64    1
    69    27    65    1
    70    29    66    1
    71    30    67    1
    72    31    68    1
    73    32    69    1
    74    33    70    1
    75    34    71    1
    76    38    72    1
    77    40    73    1
    78    42    74    1
    79    43    75    1
    80    44    76    1
    81    45    77    1
    82    46    78    1
    83    47    79    1
    84    48    80    1
    85    49    81    1
    86    50    82    1
