@<TRIPOS>MOLECULE
Patuletin 3-O-glucosyl-(1->6)-[apiosyl(1->2)]-glucoside
 95 100 0 0 0
SMALL
GASTEIGER

@<TRIPOS>ATOM
      1 C          -6.9064   -0.4242   -5.6281 C.3     1  UNL1        0.0791
      2 O          -5.6448   -0.7361   -5.0479 O.3     1  UNL1       -0.4885
      3 C          -5.3131   -0.6777   -3.6805 C.ar    1  UNL1        0.2040
      4 C          -3.9930   -1.0216   -3.3168 C.ar    1  UNL1        0.1769
      5 O          -3.0783   -1.3998   -4.3042 O.3     1  UNL1       -0.5027
      6 C          -3.5908   -0.9797   -1.9603 C.ar    1  UNL1        0.1128
      7 C          -4.5247   -0.5969   -0.9753 C.ar    1  UNL1        0.1468
      8 O          -4.1794   -0.5539    0.3059 O.2     1  UNL1       -0.4507
      9 C          -2.9586   -0.8434    0.7437 C.ar    1  UNL1        0.1810
     10 C          -1.9425   -1.1676   -0.1820 C.ar    1  UNL1        0.2138
     11 O          -0.6093   -1.3820    0.1997 O.3     1  UNL1       -0.4532
     12 C           0.1978   -0.4056    0.8636 C.3     1  UNL1        0.2315
     13 O           1.4337   -1.0059    1.1968 O.3     1  UNL1       -0.3313
     14 C           2.1287   -0.2104    2.1469 C.3     1  UNL1        0.1144
     15 C           3.5115   -0.8309    2.3791 C.3     1  UNL1        0.0796
     16 O           4.2481   -0.8257    1.1717 O.3     1  UNL1       -0.3460
     17 C           5.4113   -1.6267    1.2794 C.3     1  UNL1        0.1880
     18 O           6.4160   -1.0190    0.4808 O.3     1  UNL1       -0.3405
     19 C           7.5315   -1.8750    0.3245 C.3     1  UNL1        0.1130
     20 C           8.7109   -1.0389   -0.1958 C.3     1  UNL1        0.0730
     21 O           9.8774   -1.8113   -0.2904 O.3     1  UNL1       -0.3924
     22 C           7.1780   -3.0356   -0.6464 C.3     1  UNL1        0.1119
     23 O           7.9289   -4.1752   -0.3067 O.3     1  UNL1       -0.3865
     24 C           5.6700   -3.3880   -0.5754 C.3     1  UNL1        0.1141
     25 O           4.9401   -2.7316   -1.5857 O.3     1  UNL1       -0.3864
     26 C           5.0748   -3.0797    0.8164 C.3     1  UNL1        0.1341
     27 O           5.5822   -3.9909    1.7593 O.3     1  UNL1       -0.3841
     28 C           2.2308    1.2878    1.7130 C.3     1  UNL1        0.1120
     29 O           1.3888    2.0610    2.5321 O.3     1  UNL1       -0.3865
     30 C           1.8203    1.4661    0.2357 C.3     1  UNL1        0.1155
     31 O           2.7981    0.8804   -0.5862 O.3     1  UNL1       -0.3863
     32 C           0.4325    0.8225   -0.0518 C.3     1  UNL1        0.1519
     33 O          -0.6034    1.7613    0.1936 O.3     1  UNL1       -0.3366
     34 C          -0.8766    2.5525   -0.9504 C.3     1  UNL1        0.1885
     35 O          -1.6736    1.8138   -1.8579 O.3     1  UNL1       -0.3457
     36 C          -2.8493    2.5519   -2.0952 C.3     1  UNL1        0.0843
     37 C          -3.0817    3.4732   -0.9049 C.3     1  UNL1        0.1425
     38 O          -3.6817    2.7518    0.1478 O.3     1  UNL1       -0.3812
     39 C          -3.9445    4.7079   -1.2662 C.3     1  UNL1        0.0778
     40 O          -4.0215    5.5938   -0.1814 O.3     1  UNL1       -0.3920
     41 C          -1.6506    3.8031   -0.5111 C.3     1  UNL1        0.1387
     42 O          -1.1577    4.9609   -1.1491 O.3     1  UNL1       -0.3837
     43 C          -2.2776   -1.2732   -1.5361 C.ar    1  UNL1        0.2383
     44 O          -1.3844   -1.6062   -2.3619 O.2     1  UNL1       -0.2830
     45 C          -2.7335   -0.8371    2.2028 C.ar    1  UNL1        0.0247
     46 C          -2.0571   -1.8939    2.8347 C.ar    1  UNL1       -0.0473
     47 C          -1.8467   -1.8695    4.2153 C.ar    1  UNL1       -0.0159
     48 C          -2.3206   -0.8016    4.9840 C.ar    1  UNL1        0.1583
     49 O          -2.0920   -0.8026    6.3596 O.3     1  UNL1       -0.5033
     50 C          -3.0182    0.2491    4.3638 C.ar    1  UNL1        0.1589
     51 O          -3.4979    1.3142    5.1245 O.3     1  UNL1       -0.5033
     52 C          -3.2287    0.2227    2.9776 C.ar    1  UNL1       -0.0057
     53 C          -5.8271   -0.2600   -1.3358 C.ar    1  UNL1        0.0268
     54 C          -6.2322   -0.2925   -2.6740 C.ar    1  UNL1        0.1657
     55 O          -7.5442    0.0584   -2.9865 O.3     1  UNL1       -0.5031
     56 H          -6.8406   -0.5668   -6.7261 H       1  UNL1        0.0660
     57 H          -7.6893   -1.1071   -5.2365 H       1  UNL1        0.0660
     58 H          -7.1682    0.6368   -5.4317 H       1  UNL1        0.0660
     59 H          -3.3176   -1.4421   -5.2873 H       1  UNL1        0.2923
     60 H          -0.3206   -0.0756    1.7901 H       1  UNL1        0.1084
     61 H           1.5977   -0.2760    3.1257 H       1  UNL1        0.0647
     62 H           3.3632   -1.8687    2.7590 H       1  UNL1        0.0587
     63 H           4.0501   -0.2444    3.1574 H       1  UNL1        0.0587
     64 H           5.7929   -1.6442    2.3321 H       1  UNL1        0.0937
     65 H           7.8376   -2.2904    1.3151 H       1  UNL1        0.0647
     66 H           8.4690   -0.6282   -1.1994 H       1  UNL1        0.0584
     67 H           8.8841   -0.1727    0.4831 H       1  UNL1        0.0584
     68 H          10.2073   -1.9430    0.6366 H       1  UNL1        0.2095
     69 H           7.4025   -2.7395   -1.7000 H       1  UNL1        0.0647
     70 H           8.7851   -4.1234   -0.8057 H       1  UNL1        0.2100
     71 H           5.5520   -4.4777   -0.7670 H       1  UNL1        0.0648
     72 H           5.0786   -1.7548   -1.4879 H       1  UNL1        0.2100
     73 H           3.9670   -3.2033    0.7573 H       1  UNL1        0.0671
     74 H           5.1085   -4.8518    1.6157 H       1  UNL1        0.2101
     75 H           3.2784    1.6537    1.8344 H       1  UNL1        0.0647
     76 H           1.6669    3.0081    2.4239 H       1  UNL1        0.2100
     77 H           1.7894    2.5603    0.0251 H       1  UNL1        0.0648
     78 H           2.6795    1.2645   -1.4942 H       1  UNL1        0.2100
     79 H           0.4159    0.4605   -1.1088 H       1  UNL1        0.0687
     80 H           0.0622    2.8630   -1.4655 H       1  UNL1        0.0938
     81 H          -3.7060    1.8643   -2.2460 H       1  UNL1        0.0591
     82 H          -2.7190    3.1333   -3.0348 H       1  UNL1        0.0591
     83 H          -4.5886    2.4759   -0.1483 H       1  UNL1        0.2105
     84 H          -4.9657    4.3835   -1.5723 H       1  UNL1        0.0587
     85 H          -3.5132    5.2503   -2.1339 H       1  UNL1        0.0587
     86 H          -4.6879    5.2155    0.4496 H       1  UNL1        0.2095
     87 H          -1.5728    3.9611    0.5882 H       1  UNL1        0.0675
     88 H          -1.1418    4.7974   -2.1286 H       1  UNL1        0.2101
     89 H          -1.6920   -2.7359    2.2600 H       1  UNL1        0.0626
     90 H          -1.3153   -2.6844    4.6904 H       1  UNL1        0.0655
     91 H          -2.4150   -0.0528    6.9591 H       1  UNL1        0.2923
     92 H          -4.0024    2.0842    4.7008 H       1  UNL1        0.2923
     93 H          -3.7621    1.0375    2.5028 H       1  UNL1        0.0662
     94 H          -6.5309    0.0345   -0.5669 H       1  UNL1        0.0692
     95 H          -8.2086    0.3361   -2.2733 H       1  UNL1        0.2923
@<TRIPOS>BOND
     1     1     2    1
     2     2     3    1
     3     3     4   ar
     4     4     5    1
     5     4     6   ar
     6     6     7   ar
     7     7     8   ar
     8     8     9   ar
     9     9    10   ar
    10    10    11    1
    11    11    12    1
    12    12    13    1
    13    13    14    1
    14    14    15    1
    15    15    16    1
    16    16    17    1
    17    17    18    1
    18    18    19    1
    19    19    20    1
    20    20    21    1
    21    19    22    1
    22    22    23    1
    23    22    24    1
    24    24    25    1
    25    24    26    1
    26    26    27    1
    27    14    28    1
    28    28    29    1
    29    28    30    1
    30    30    31    1
    31    30    32    1
    32    32    33    1
    33    33    34    1
    34    34    35    1
    35    35    36    1
    36    36    37    1
    37    37    38    1
    38    37    39    1
    39    39    40    1
    40    37    41    1
    41    41    42    1
    42    10    43   ar
    43    43    44    2
    44     9    45    1
    45    45    46   ar
    46    46    47   ar
    47    47    48   ar
    48    48    49    1
    49    48    50   ar
    50    50    51    1
    51    50    52   ar
    52     7    53   ar
    53    53    54   ar
    54    54    55    1
    55    54     3   ar
    56    43     6   ar
    57    52    45   ar
    58    32    12    1
    59    41    34    1
    60    26    17    1
    61     1    56    1
    62     1    57    1
    63     1    58    1
    64     5    59    1
    65    12    60    1
    66    14    61    1
    67    15    62    1
    68    15    63    1
    69    17    64    1
    70    19    65    1
    71    20    66    1
    72    20    67    1
    73    21    68    1
    74    22    69    1
    75    23    70    1
    76    24    71    1
    77    25    72    1
    78    26    73    1
    79    27    74    1
    80    28    75    1
    81    29    76    1
    82    30    77    1
    83    31    78    1
    84    32    79    1
    85    34    80    1
    86    36    81    1
    87    36    82    1
    88    38    83    1
    89    39    84    1
    90    39    85    1
    91    40    86    1
    92    41    87    1
    93    42    88    1
    94    46    89    1
    95    47    90    1
    96    49    91    1
    97    51    92    1
    98    52    93    1
    99    53    94    1
   100    55    95    1
