@<TRIPOS>MOLECULE
Spinacetin 3-O-glucosyl-(1->6)-[apiosyl(1->2)]-glucoside
 98 103 0 0 0
SMALL
GASTEIGER

@<TRIPOS>ATOM
      1 C          -2.4408   -2.8791   -5.0804 C.3     1  UNL1        0.0790
      2 O          -3.2788   -1.7391   -5.2412 O.3     1  UNL1       -0.4914
      3 C          -3.6280   -0.8562   -4.2069 C.ar    1  UNL1        0.1619
      4 C          -3.1849   -1.0470   -2.8830 C.ar    1  UNL1       -0.0055
      5 C          -3.5290   -0.1293   -1.8772 C.ar    1  UNL1        0.0247
      6 C          -4.3588    0.9554   -2.1853 C.ar    1  UNL1       -0.0473
      7 C          -4.8064    1.1470   -3.4933 C.ar    1  UNL1       -0.0159
      8 C          -4.4435    0.2516   -4.5048 C.ar    1  UNL1        0.1585
      9 O          -4.9048    0.4785   -5.8013 O.3     1  UNL1       -0.5033
     10 C          -3.0802   -0.3371   -0.4909 C.ar    1  UNL1        0.1810
     11 C          -1.7284   -0.5466   -0.1453 C.ar    1  UNL1        0.2138
     12 O          -0.6591   -0.3926   -1.0459 O.3     1  UNL1       -0.4532
     13 C          -0.4631    0.7064   -1.9477 C.3     1  UNL1        0.2315
     14 O           0.7235    0.4728   -2.6977 O.3     1  UNL1       -0.3313
     15 C           1.8668    0.9559   -2.0204 C.3     1  UNL1        0.1144
     16 C           3.1239    0.3651   -2.6656 C.3     1  UNL1        0.0796
     17 O           3.0676   -1.0504   -2.5797 O.3     1  UNL1       -0.3460
     18 C           4.1948   -1.6014   -1.9206 C.3     1  UNL1        0.1880
     19 O           4.2728   -2.9701   -2.2905 O.3     1  UNL1       -0.3405
     20 C           5.4115   -3.6273   -1.7475 C.3     1  UNL1        0.1130
     21 C           6.7170   -3.1951   -2.4586 C.3     1  UNL1        0.0730
     22 O           7.7157   -4.1691   -2.3088 O.3     1  UNL1       -0.3924
     23 C           5.4298   -3.5488   -0.1952 C.3     1  UNL1        0.1119
     24 O           6.5711   -4.1581    0.3586 O.3     1  UNL1       -0.3865
     25 C           5.2148   -2.1153    0.3355 C.3     1  UNL1        0.1141
     26 O           6.3702   -1.3363    0.1528 O.3     1  UNL1       -0.3864
     27 C           4.0228   -1.4660   -0.3898 C.3     1  UNL1        0.1341
     28 O           2.8209   -2.0813    0.0007 O.3     1  UNL1       -0.3841
     29 C           1.8777    2.5048   -2.0762 C.3     1  UNL1        0.1120
     30 O           2.7146    3.0341   -1.0755 O.3     1  UNL1       -0.3865
     31 C           0.4323    3.0708   -1.9881 C.3     1  UNL1        0.1155
     32 O           0.4192    4.3373   -1.3825 O.3     1  UNL1       -0.3863
     33 C          -0.5018    2.1018   -1.2334 C.3     1  UNL1        0.1519
     34 O          -0.0647    1.9832    0.1152 O.3     1  UNL1       -0.3366
     35 C          -1.0026    2.5252    1.0303 C.3     1  UNL1        0.1885
     36 O          -1.1554    3.9121    0.8418 O.3     1  UNL1       -0.3457
     37 C          -1.6369    4.4214    2.0623 C.3     1  UNL1        0.0843
     38 C          -1.1569    3.5009    3.2039 C.3     1  UNL1        0.1425
     39 O          -0.2220    4.1603    4.0317 O.3     1  UNL1       -0.3812
     40 C          -2.3338    3.0437    4.0939 C.3     1  UNL1        0.0778
     41 O          -3.2980    2.3535    3.3443 O.3     1  UNL1       -0.3920
     42 C          -0.5256    2.3156    2.4616 C.3     1  UNL1        0.1387
     43 O           0.8799    2.3551    2.5121 O.3     1  UNL1       -0.3837
     44 C          -1.4275   -0.9215    1.1698 C.ar    1  UNL1        0.2383
     45 O          -0.2427   -1.2540    1.4355 O.2     1  UNL1       -0.2830
     46 C          -2.4401   -0.9250    2.1609 C.ar    1  UNL1        0.1128
     47 C          -3.7587   -0.6570    1.7235 C.ar    1  UNL1        0.1468
     48 O          -4.0141   -0.3844    0.4503 O.2     1  UNL1       -0.4507
     49 C          -4.8233   -0.6973    2.6186 C.ar    1  UNL1        0.0268
     50 C          -4.6123   -1.0186    3.9578 C.ar    1  UNL1        0.1657
     51 O          -5.6934   -1.0853    4.8363 O.3     1  UNL1       -0.5031
     52 C          -3.3207   -1.2687    4.4354 C.ar    1  UNL1        0.2040
     53 O          -3.2092   -1.5771    5.8056 O.3     1  UNL1       -0.4885
     54 C          -2.0197   -1.9146    6.5106 C.3     1  UNL1        0.0791
     55 C          -2.2132   -1.1820    3.5489 C.ar    1  UNL1        0.1769
     56 O          -0.9263   -1.3102    4.0779 O.3     1  UNL1       -0.5027
     57 H          -2.3248   -3.3847   -6.0608 H       1  UNL1        0.0660
     58 H          -1.4375   -2.5677   -4.7200 H       1  UNL1        0.0660
     59 H          -2.9004   -3.5931   -4.3648 H       1  UNL1        0.0660
     60 H          -2.5661   -1.8969   -2.6275 H       1  UNL1        0.0662
     61 H          -4.6475    1.6607   -1.4153 H       1  UNL1        0.0626
     62 H          -5.4379    1.9957   -3.7234 H       1  UNL1        0.0655
     63 H          -4.6736   -0.1367   -6.5720 H       1  UNL1        0.2923
     64 H          -1.2717    0.7164   -2.6987 H       1  UNL1        0.1084
     65 H           1.8597    0.6106   -0.9596 H       1  UNL1        0.0647
     66 H           3.1519    0.6452   -3.7406 H       1  UNL1        0.0587
     67 H           4.0208    0.8229   -2.1848 H       1  UNL1        0.0587
     68 H           5.1231   -1.0806   -2.2540 H       1  UNL1        0.0937
     69 H           5.2774   -4.7041   -1.9922 H       1  UNL1        0.0647
     70 H           7.0991   -2.2388   -2.0517 H       1  UNL1        0.0584
     71 H           6.5140   -3.0299   -3.5416 H       1  UNL1        0.0584
     72 H           7.5007   -4.9002   -2.9452 H       1  UNL1        0.2095
     73 H           4.5573   -4.1447    0.1545 H       1  UNL1        0.0647
     74 H           7.3532   -3.5753    0.1828 H       1  UNL1        0.2100
     75 H           4.9895   -2.1817    1.4262 H       1  UNL1        0.0648
     76 H           6.2826   -0.5462    0.7478 H       1  UNL1        0.2100
     77 H           3.9897   -0.3851   -0.1200 H       1  UNL1        0.0671
     78 H           2.5985   -1.7307    0.9026 H       1  UNL1        0.2101
     79 H           2.2905    2.8295   -3.0571 H       1  UNL1        0.0647
     80 H           2.3369    2.7784   -0.1947 H       1  UNL1        0.2100
     81 H           0.0287    3.1661   -3.0249 H       1  UNL1        0.0648
     82 H           0.8323    4.9669   -2.0297 H       1  UNL1        0.2100
     83 H          -1.5458    2.4927   -1.3225 H       1  UNL1        0.0687
     84 H          -1.9940    2.0283    0.9085 H       1  UNL1        0.0938
     85 H          -2.7464    4.4837    2.0084 H       1  UNL1        0.0591
     86 H          -1.2638    5.4596    2.1936 H       1  UNL1        0.0591
     87 H           0.4637    4.5921    3.4568 H       1  UNL1        0.2105
     88 H          -1.9462    2.3803    4.9004 H       1  UNL1        0.0587
     89 H          -2.8010    3.9342    4.5715 H       1  UNL1        0.0587
     90 H          -4.0015    2.0776    3.9873 H       1  UNL1        0.2095
     91 H          -0.8861    1.3338    2.8399 H       1  UNL1        0.0675
     92 H           1.1442    1.9405    3.3747 H       1  UNL1        0.2101
     93 H          -5.8272   -0.4965    2.2647 H       1  UNL1        0.0692
     94 H          -6.6419   -0.9070    4.5271 H       1  UNL1        0.2923
     95 H          -1.3263   -1.0479    6.5321 H       1  UNL1        0.0660
     96 H          -2.2843   -2.1682    7.5574 H       1  UNL1        0.0660
     97 H          -1.5371   -2.8024    6.0502 H       1  UNL1        0.0660
     98 H          -0.0947   -0.9076    3.6721 H       1  UNL1        0.2923
@<TRIPOS>BOND
     1     1     2    1
     2     2     3    1
     3     3     4   ar
     4     4     5   ar
     5     5     6   ar
     6     6     7   ar
     7     7     8   ar
     8     8     9    1
     9     5    10    1
    10    10    11   ar
    11    11    12    1
    12    12    13    1
    13    13    14    1
    14    14    15    1
    15    15    16    1
    16    16    17    1
    17    17    18    1
    18    18    19    1
    19    19    20    1
    20    20    21    1
    21    21    22    1
    22    20    23    1
    23    23    24    1
    24    23    25    1
    25    25    26    1
    26    25    27    1
    27    27    28    1
    28    15    29    1
    29    29    30    1
    30    29    31    1
    31    31    32    1
    32    31    33    1
    33    33    34    1
    34    34    35    1
    35    35    36    1
    36    36    37    1
    37    37    38    1
    38    38    39    1
    39    38    40    1
    40    40    41    1
    41    38    42    1
    42    42    43    1
    43    11    44   ar
    44    44    45    2
    45    44    46   ar
    46    46    47   ar
    47    47    48   ar
    48    47    49   ar
    49    49    50   ar
    50    50    51    1
    51    50    52   ar
    52    52    53    1
    53    53    54    1
    54    52    55   ar
    55    55    56    1
    56     8     3   ar
    57    48    10   ar
    58    33    13    1
    59    42    35    1
    60    55    46   ar
    61    27    18    1
    62     1    57    1
    63     1    58    1
    64     1    59    1
    65     4    60    1
    66     6    61    1
    67     7    62    1
    68     9    63    1
    69    13    64    1
    70    15    65    1
    71    16    66    1
    72    16    67    1
    73    18    68    1
    74    20    69    1
    75    21    70    1
    76    21    71    1
    77    22    72    1
    78    23    73    1
    79    24    74    1
    80    25    75    1
    81    26    76    1
    82    27    77    1
    83    28    78    1
    84    29    79    1
    85    30    80    1
    86    31    81    1
    87    32    82    1
    88    33    83    1
    89    35    84    1
    90    37    85    1
    91    37    86    1
    92    39    87    1
    93    40    88    1
    94    40    89    1
    95    41    90    1
    96    42    91    1
    97    43    92    1
    98    49    93    1
    99    51    94    1
   100    54    95    1
   101    54    96    1
   102    54    97    1
   103    56    98    1
