@<TRIPOS>MOLECULE
Patuletin 3-O-(2''-feruloylglucosyl)(1->6)-[apiosyl(1->2)]-glucoside
 116 122 0 0 0
SMALL
GASTEIGER

@<TRIPOS>ATOM
      1 C          -0.7782   -2.4452    2.9183 C.3     1  UNL1        0.1885
      2 O          -0.5844   -1.5901    1.8081 O.3     1  UNL1       -0.3366
      3 C          -1.6959   -1.6256    0.9229 C.3     1  UNL1        0.1519
      4 C          -1.4049   -2.6065   -0.2289 C.3     1  UNL1        0.1155
      5 O          -2.5562   -2.7280   -1.0257 O.3     1  UNL1       -0.3863
      6 C          -0.2136   -2.1082   -1.0868 C.3     1  UNL1        0.1120
      7 O           0.9927   -2.5969   -0.5569 O.3     1  UNL1       -0.3865
      8 C          -0.1575   -0.5574   -1.1169 C.3     1  UNL1        0.1144
      9 C           0.4221   -0.0368   -2.4362 C.3     1  UNL1        0.0796
     10 O           1.7122   -0.5819   -2.6327 O.3     1  UNL1       -0.3451
     11 C           2.4821    0.2257   -3.5017 C.3     1  UNL1        0.1993
     12 O           1.8862    0.2285   -4.7934 O.3     1  UNL1       -0.3396
     13 C           2.7389    0.5953   -5.8785 C.3     1  UNL1        0.1131
     14 C           2.9696   -0.6292   -6.7832 C.3     1  UNL1        0.0730
     15 O           1.7494   -1.2400   -7.1074 O.3     1  UNL1       -0.3924
     16 C           4.0871    1.2901   -5.5047 C.3     1  UNL1        0.1130
     17 O           3.8943    2.6647   -5.2675 O.3     1  UNL1       -0.3864
     18 C           4.8278    0.6235   -4.3158 C.3     1  UNL1        0.1251
     19 O           5.9418   -0.0875   -4.7944 O.3     1  UNL1       -0.3853
     20 C           3.9160   -0.3254   -3.5209 C.3     1  UNL1        0.1819
     21 O           4.4091   -0.4433   -2.1830 O.3     1  UNL1       -0.4504
     22 C           4.1829   -1.5643   -1.3753 C.2     1  UNL1        0.3324
     23 O           3.8020   -2.6543   -1.8855 O.2     1  UNL1       -0.2456
     24 C           4.3703   -1.4431    0.0783 C.2     1  UNL1        0.0231
     25 C           4.2056   -2.4806    0.9101 C.2     1  UNL1       -0.0477
     26 C           4.3615   -2.3677    2.3773 C.ar    1  UNL1       -0.0211
     27 C           4.0481   -1.1829    3.0694 C.ar    1  UNL1       -0.0092
     28 C           4.1921   -1.1096    4.4694 C.ar    1  UNL1        0.1618
     29 O           3.8723    0.0525    5.1894 O.3     1  UNL1       -0.4914
     30 C           3.3108    1.2288    4.6163 C.3     1  UNL1        0.0790
     31 C           4.6590   -2.2349    5.1718 C.ar    1  UNL1        0.1585
     32 O           4.8273   -2.2015    6.5560 O.3     1  UNL1       -0.5033
     33 C           4.9479   -3.4175    4.4859 C.ar    1  UNL1       -0.0160
     34 C           4.7901   -3.4884    3.1013 C.ar    1  UNL1       -0.0509
     35 O          -1.4546   -0.0217   -0.9618 O.3     1  UNL1       -0.3313
     36 C          -1.9327   -0.1920    0.3648 C.3     1  UNL1        0.2315
     37 O          -3.3331    0.0831    0.3784 O.3     1  UNL1       -0.4532
     38 C          -3.8365    1.3751    0.1904 C.ar    1  UNL1        0.2138
     39 C          -4.0275    1.9110   -1.0964 C.ar    1  UNL1        0.1810
     40 O          -4.4770    3.1528   -1.2293 O.2     1  UNL1       -0.4507
     41 C          -4.7699    3.9391   -0.1996 C.ar    1  UNL1        0.1468
     42 C          -4.5908    3.4930    1.1320 C.ar    1  UNL1        0.1128
     43 C          -4.8845    4.3939    2.1980 C.ar    1  UNL1        0.1769
     44 O          -4.6299    4.0994    3.5420 O.3     1  UNL1       -0.5027
     45 C          -5.4311    5.6618    1.9260 C.ar    1  UNL1        0.2040
     46 O          -5.7414    6.4715    3.0360 O.3     1  UNL1       -0.4885
     47 C          -6.2967    7.7815    2.9991 C.3     1  UNL1        0.0791
     48 C          -5.6239    6.0703    0.5863 C.ar    1  UNL1        0.1657
     49 O          -6.1532    7.3224    0.2788 O.3     1  UNL1       -0.5031
     50 C          -5.2722    5.2123   -0.4575 C.ar    1  UNL1        0.0268
     51 C          -4.1525    2.1576    1.3062 C.ar    1  UNL1        0.2383
     52 O          -4.0583    1.6343    2.4473 O.2     1  UNL1       -0.2830
     53 C          -3.7344    1.1396   -2.3232 C.ar    1  UNL1        0.0247
     54 C          -3.0207    1.7464   -3.3650 C.ar    1  UNL1       -0.0473
     55 C          -2.6915    1.0203   -4.5106 C.ar    1  UNL1       -0.0159
     56 C          -3.0798   -0.3172   -4.6443 C.ar    1  UNL1        0.1583
     57 O          -2.7019   -0.9934   -5.8060 O.3     1  UNL1       -0.5033
     58 C          -3.8302   -0.9293   -3.6123 C.ar    1  UNL1        0.1589
     59 O          -4.2708   -2.2523   -3.6838 O.3     1  UNL1       -0.5033
     60 C          -4.1541   -0.1931   -2.4656 C.ar    1  UNL1       -0.0057
     61 O          -1.7036   -1.8693    3.8187 O.3     1  UNL1       -0.3457
     62 C          -1.1557   -1.9515    5.1177 C.3     1  UNL1        0.0843
     63 C           0.0916   -2.8412    5.0867 C.3     1  UNL1        0.1425
     64 O          -0.2600   -4.1930    5.2844 O.3     1  UNL1       -0.3812
     65 C           1.1723   -2.4054    6.1017 C.3     1  UNL1        0.0778
     66 O           0.6710   -2.4367    7.4123 O.3     1  UNL1       -0.3920
     67 C           0.5441   -2.6310    3.6556 C.3     1  UNL1        0.1387
     68 O           1.3276   -3.6879    3.1501 O.3     1  UNL1       -0.3837
     69 H          -1.1691   -3.4408    2.6013 H       1  UNL1        0.0938
     70 H          -2.6335   -1.9556    1.4356 H       1  UNL1        0.0687
     71 H          -1.1634   -3.6044    0.2061 H       1  UNL1        0.0648
     72 H          -2.4494   -3.5557   -1.5637 H       1  UNL1        0.2100
     73 H          -0.3408   -2.4958   -2.1262 H       1  UNL1        0.0647
     74 H           1.0610   -3.5508   -0.8240 H       1  UNL1        0.2100
     75 H           0.5083   -0.1852   -0.3008 H       1  UNL1        0.0647
     76 H           0.4293    1.0772   -2.3798 H       1  UNL1        0.0587
     77 H          -0.2404   -0.3393   -3.2772 H       1  UNL1        0.0587
     78 H           2.5233    1.2621   -3.0968 H       1  UNL1        0.0949
     79 H           2.1698    1.3242   -6.4969 H       1  UNL1        0.0647
     80 H           3.4992   -0.3253   -7.7152 H       1  UNL1        0.0584
     81 H           3.6090   -1.3750   -6.2705 H       1  UNL1        0.0584
     82 H           1.3093   -0.6573   -7.7800 H       1  UNL1        0.2095
     83 H           4.7509    1.2399   -6.3966 H       1  UNL1        0.0647
     84 H           3.1956    2.7666   -4.5733 H       1  UNL1        0.2100
     85 H           5.1840    1.4326   -3.6336 H       1  UNL1        0.0659
     86 H           6.5292   -0.2639   -4.0133 H       1  UNL1        0.2101
     87 H           3.9153   -1.3244   -4.0095 H       1  UNL1        0.0813
     88 H           4.6536   -0.4723    0.4637 H       1  UNL1        0.0689
     89 H           3.9935   -3.4621    0.5016 H       1  UNL1        0.0626
     90 H           3.6662   -0.3324    2.5233 H       1  UNL1        0.0661
     91 H           3.1393    1.9757    5.4181 H       1  UNL1        0.0660
     92 H           4.0102    1.6623    3.8708 H       1  UNL1        0.0660
     93 H           2.3370    0.9917    4.1373 H       1  UNL1        0.0660
     94 H           4.6226   -1.3752    7.1050 H       1  UNL1        0.2923
     95 H           5.2933   -4.2873    5.0302 H       1  UNL1        0.0655
     96 H           5.0183   -4.4165    2.5913 H       1  UNL1        0.0625
     97 H          -1.4320    0.5493    1.0300 H       1  UNL1        0.1084
     98 H          -3.9698    3.4076    3.8636 H       1  UNL1        0.2923
     99 H          -6.4279    8.1444    4.0390 H       1  UNL1        0.0660
    100 H          -7.2933    7.7633    2.5101 H       1  UNL1        0.0660
    101 H          -5.6082    8.4765    2.4742 H       1  UNL1        0.0660
    102 H          -6.2925    7.6245   -0.6785 H       1  UNL1        0.2923
    103 H          -5.4089    5.5305   -1.4840 H       1  UNL1        0.0692
    104 H          -2.6924    2.7751   -3.2788 H       1  UNL1        0.0626
    105 H          -2.1202    1.4972   -5.2971 H       1  UNL1        0.0655
    106 H          -2.9161   -1.9629   -5.9897 H       1  UNL1        0.2923
    107 H          -4.0971   -2.8635   -4.4684 H       1  UNL1        0.2923
    108 H          -4.7361   -0.6664   -1.6845 H       1  UNL1        0.0662
    109 H          -1.9211   -2.3464    5.8192 H       1  UNL1        0.0591
    110 H          -0.8956   -0.9214    5.4475 H       1  UNL1        0.0591
    111 H          -0.6822   -4.2745    6.1788 H       1  UNL1        0.2105
    112 H           1.5030   -1.3669    5.8862 H       1  UNL1        0.0587
    113 H           2.0638   -3.0664    6.0038 H       1  UNL1        0.0587
    114 H           0.8650   -3.3399    7.7757 H       1  UNL1        0.2095
    115 H           1.1327   -1.6884    3.5762 H       1  UNL1        0.0675
    116 H           0.7603   -4.4974    3.0677 H       1  UNL1        0.2101
@<TRIPOS>BOND
     1     1     2    1
     2     2     3    1
     3     3     4    1
     4     4     5    1
     5     4     6    1
     6     6     7    1
     7     6     8    1
     8     8     9    1
     9     9    10    1
    10    10    11    1
    11    11    12    1
    12    12    13    1
    13    13    14    1
    14    14    15    1
    15    13    16    1
    16    16    17    1
    17    16    18    1
    18    18    19    1
    19    18    20    1
    20    20    21    1
    21    21    22    1
    22    22    23    2
    23    22    24    1
    24    24    25    2
    25    25    26    1
    26    26    27   ar
    27    27    28   ar
    28    28    29    1
    29    29    30    1
    30    28    31   ar
    31    31    32    1
    32    31    33   ar
    33    33    34   ar
    34     8    35    1
    35    35    36    1
    36    36    37    1
    37    37    38    1
    38    38    39   ar
    39    39    40   ar
    40    40    41   ar
    41    41    42   ar
    42    42    43   ar
    43    43    44    1
    44    43    45   ar
    45    45    46    1
    46    46    47    1
    47    45    48   ar
    48    48    49    1
    49    48    50   ar
    50    42    51   ar
    51    51    52    2
    52    39    53    1
    53    53    54   ar
    54    54    55   ar
    55    55    56   ar
    56    56    57    1
    57    56    58   ar
    58    58    59    1
    59    58    60   ar
    60     1    61    1
    61    61    62    1
    62    62    63    1
    63    63    64    1
    64    63    65    1
    65    65    66    1
    66    63    67    1
    67    67    68    1
    68    67     1    1
    69    36     3    1
    70    51    38   ar
    71    60    53   ar
    72    20    11    1
    73    34    26   ar
    74    50    41   ar
    75     1    69    1
    76     3    70    1
    77     4    71    1
    78     5    72    1
    79     6    73    1
    80     7    74    1
    81     8    75    1
    82     9    76    1
    83     9    77    1
    84    11    78    1
    85    13    79    1
    86    14    80    1
    87    14    81    1
    88    15    82    1
    89    16    83    1
    90    17    84    1
    91    18    85    1
    92    19    86    1
    93    20    87    1
    94    24    88    1
    95    25    89    1
    96    27    90    1
    97    30    91    1
    98    30    92    1
    99    30    93    1
   100    32    94    1
   101    33    95    1
   102    34    96    1
   103    36    97    1
   104    44    98    1
   105    47    99    1
   106    47   100    1
   107    47   101    1
   108    49   102    1
   109    50   103    1
   110    54   104    1
   111    55   105    1
   112    57   106    1
   113    59   107    1
   114    60   108    1
   115    62   109    1
   116    62   110    1
   117    64   111    1
   118    65   112    1
   119    65   113    1
   120    66   114    1
   121    67   115    1
   122    68   116    1
