@<TRIPOS>MOLECULE
Spinacetin 3-O-(2"-p-coumaroylglucosyl)(1->6)-[apiosyl(1->2)]-glucoside
 115 121 0 0 0
SMALL
GASTEIGER

@<TRIPOS>ATOM
      1 C          -3.2718   -2.7657    2.6029 C.3     1  UNL1        0.1885
      2 O          -2.1076   -2.0714    3.0176 O.3     1  UNL1       -0.3366
      3 C          -1.2678   -1.7391    1.9220 C.3     1  UNL1        0.1519
      4 C          -1.4172   -0.2437    1.5916 C.3     1  UNL1        0.2315
      5 O          -2.7617    0.0128    1.2006 O.3     1  UNL1       -0.4532
      6 C          -3.2070    1.2971    0.8761 C.ar    1  UNL1        0.2138
      7 C          -3.4642    1.6439   -0.4624 C.ar    1  UNL1        0.1810
      8 O          -3.8295    2.8866   -0.7627 O.2     1  UNL1       -0.4507
      9 C          -3.9939    3.8391    0.1487 C.ar    1  UNL1        0.1468
     10 C          -4.3792    5.1152   -0.2657 C.ar    1  UNL1        0.0268
     11 C          -4.5667    6.1375    0.6650 C.ar    1  UNL1        0.1657
     12 O          -4.9397    7.4021    0.2099 O.3     1  UNL1       -0.5031
     13 C          -4.3761    5.8828    2.0340 C.ar    1  UNL1        0.2040
     14 O          -4.5795    6.9026    2.9652 O.3     1  UNL1       -0.4885
     15 C          -5.8589    7.1287    3.5424 C.3     1  UNL1        0.0791
     16 C          -3.9726    4.6041    2.4673 C.ar    1  UNL1        0.1769
     17 O          -3.7593    4.3653    3.8274 O.3     1  UNL1       -0.5027
     18 C          -3.7827    3.5685    1.5205 C.ar    1  UNL1        0.1128
     19 C          -3.3837    2.2630    1.8755 C.ar    1  UNL1        0.2383
     20 O          -3.1885    1.9462    3.0805 O.2     1  UNL1       -0.2830
     21 C          -3.3062    0.6710   -1.5675 C.ar    1  UNL1        0.0247
     22 C          -3.7756   -0.6477   -1.4530 C.ar    1  UNL1       -0.0473
     23 C          -3.6322   -1.5416   -2.5150 C.ar    1  UNL1       -0.0159
     24 C          -3.0363   -1.1315   -3.7109 C.ar    1  UNL1        0.1585
     25 O          -2.9170   -2.0512   -4.7529 O.3     1  UNL1       -0.5033
     26 C          -2.5725    0.1894   -3.8497 C.ar    1  UNL1        0.1619
     27 O          -1.9815    0.5761   -5.0630 O.3     1  UNL1       -0.4914
     28 C          -1.3892    1.8480   -5.3043 C.3     1  UNL1        0.0790
     29 C          -2.7151    1.0853   -2.7716 C.ar    1  UNL1       -0.0055
     30 O          -0.5596    0.1049    0.5192 O.3     1  UNL1       -0.3313
     31 C           0.7972   -0.0125    0.9090 C.3     1  UNL1        0.1144
     32 C           1.6756    0.5275   -0.2251 C.3     1  UNL1        0.0796
     33 O           1.4703   -0.2408   -1.3958 O.3     1  UNL1       -0.3451
     34 C           2.5159   -0.0416   -2.3328 C.3     1  UNL1        0.1993
     35 O           1.9784   -0.1585   -3.6460 O.3     1  UNL1       -0.3396
     36 C           1.8623   -1.5148   -4.0351 C.3     1  UNL1        0.1131
     37 C           0.9087   -1.6156   -5.2310 C.3     1  UNL1        0.0730
     38 O           0.7761   -2.9513   -5.6327 O.3     1  UNL1       -0.3924
     39 C           3.2717   -2.0985   -4.3271 C.3     1  UNL1        0.1130
     40 O           3.6430   -1.8622   -5.6624 O.3     1  UNL1       -0.3864
     41 C           4.3300   -1.4742   -3.3865 C.3     1  UNL1        0.1251
     42 O           5.3508   -2.4114   -3.1550 O.3     1  UNL1       -0.3853
     43 C           3.6857   -1.0379   -2.0576 C.3     1  UNL1        0.1819
     44 O           4.6547   -0.4072   -1.2174 O.3     1  UNL1       -0.4504
     45 C           5.4589   -1.0941   -0.2984 C.2     1  UNL1        0.3324
     46 O           5.3770   -2.3471   -0.1848 O.2     1  UNL1       -0.2456
     47 C           6.4013   -0.3586    0.5578 C.2     1  UNL1        0.0231
     48 C           6.5231    0.9741    0.4923 C.2     1  UNL1       -0.0478
     49 C           7.4612    1.7589    1.3321 C.ar    1  UNL1       -0.0246
     50 C           7.8245    3.0487    0.9086 C.ar    1  UNL1       -0.0511
     51 C           8.6974    3.8291    1.6724 C.ar    1  UNL1       -0.0196
     52 C           9.2115    3.3352    2.8774 C.ar    1  UNL1        0.1169
     53 O          10.0823    4.1035    3.6468 O.3     1  UNL1       -0.5068
     54 C           8.8446    2.0601    3.3156 C.ar    1  UNL1       -0.0196
     55 C           7.9723    1.2757    2.5543 C.ar    1  UNL1       -0.0511
     56 C           1.1465   -1.4861    1.2319 C.3     1  UNL1        0.1120
     57 O           2.4732   -1.5647    1.6889 O.3     1  UNL1       -0.3865
     58 C           0.1902   -2.0235    2.3139 C.3     1  UNL1        0.1155
     59 O           0.3637   -3.4093    2.4633 O.3     1  UNL1       -0.3863
     60 O          -4.2910   -2.5423    3.5541 O.3     1  UNL1       -0.3457
     61 C          -4.7567   -3.7969    3.9960 C.3     1  UNL1        0.0843
     62 C          -4.3063   -4.8662    3.0093 C.3     1  UNL1        0.1425
     63 O          -5.2549   -4.9470    1.9679 O.3     1  UNL1       -0.3812
     64 C          -4.1092   -6.2410    3.6929 C.3     1  UNL1        0.0778
     65 O          -5.3199   -6.7090    4.2250 O.3     1  UNL1       -0.3920
     66 C          -3.0034   -4.2673    2.5147 C.3     1  UNL1        0.1387
     67 O          -2.7040   -4.6480    1.1962 O.3     1  UNL1       -0.3837
     68 H          -3.6629   -2.3896    1.6275 H       1  UNL1        0.0938
     69 H          -1.4860   -2.3280    0.9974 H       1  UNL1        0.0687
     70 H          -1.1896    0.3652    2.4976 H       1  UNL1        0.1084
     71 H          -4.5325    5.3148   -1.3192 H       1  UNL1        0.0692
     72 H          -5.0688    8.1862    0.8377 H       1  UNL1        0.2923
     73 H          -5.7951    7.9820    4.2482 H       1  UNL1        0.0660
     74 H          -6.1916    6.2257    4.0965 H       1  UNL1        0.0660
     75 H          -6.5984    7.3699    2.7499 H       1  UNL1        0.0660
     76 H          -3.8677    5.0857    4.5308 H       1  UNL1        0.2923
     77 H          -4.2765   -0.9825   -0.5540 H       1  UNL1        0.0626
     78 H          -3.9973   -2.5558   -2.4129 H       1  UNL1        0.0655
     79 H          -2.5014   -1.8076   -5.6438 H       1  UNL1        0.2923
     80 H          -2.1537    2.6485   -5.2181 H       1  UNL1        0.0660
     81 H          -0.5627    2.0261   -4.5839 H       1  UNL1        0.0660
     82 H          -0.9728    1.8638   -6.3322 H       1  UNL1        0.0660
     83 H          -2.3622    2.1044   -2.8592 H       1  UNL1        0.0662
     84 H           0.9979    0.6220    1.8048 H       1  UNL1        0.0647
     85 H           2.7347    0.5110    0.1158 H       1  UNL1        0.0587
     86 H           1.3933    1.5852   -0.4241 H       1  UNL1        0.0587
     87 H           2.9215    0.9973   -2.2756 H       1  UNL1        0.0949
     88 H           1.3906   -2.1110   -3.2165 H       1  UNL1        0.0647
     89 H          -0.0838   -1.2245   -4.9235 H       1  UNL1        0.0584
     90 H           1.2803   -0.9949   -6.0769 H       1  UNL1        0.0584
     91 H           0.1397   -2.9472   -6.3942 H       1  UNL1        0.2095
     92 H           3.2154   -3.1988   -4.1482 H       1  UNL1        0.0647
     93 H           4.3954   -2.4781   -5.8636 H       1  UNL1        0.2100
     94 H           4.7500   -0.5634   -3.8799 H       1  UNL1        0.0659
     95 H           6.1863   -1.8995   -2.9957 H       1  UNL1        0.2101
     96 H           3.2703   -1.9374   -1.5467 H       1  UNL1        0.0813
     97 H           7.0127   -0.9378    1.2359 H       1  UNL1        0.0689
     98 H           5.9362    1.5192   -0.2382 H       1  UNL1        0.0626
     99 H           7.4380    3.4504   -0.0204 H       1  UNL1        0.0625
    100 H           8.9722    4.8177    1.3271 H       1  UNL1        0.0654
    101 H          10.3661    5.0321    3.3568 H       1  UNL1        0.2921
    102 H           9.2305    1.6784    4.2525 H       1  UNL1        0.0654
    103 H           7.6869    0.3077    2.9414 H       1  UNL1        0.0625
    104 H           1.0180   -2.0977    0.3062 H       1  UNL1        0.0647
    105 H           2.8010   -2.4764    1.4727 H       1  UNL1        0.2100
    106 H           0.4029   -1.5054    3.2807 H       1  UNL1        0.0648
    107 H           1.1405   -3.5405    3.0672 H       1  UNL1        0.2100
    108 H          -5.8647   -3.7754    4.0802 H       1  UNL1        0.0591
    109 H          -4.3396   -3.9847    5.0104 H       1  UNL1        0.0591
    110 H          -4.9903   -5.6929    1.3683 H       1  UNL1        0.2105
    111 H          -3.6952   -6.9775    2.9664 H       1  UNL1        0.0587
    112 H          -3.3737   -6.1546    4.5216 H       1  UNL1        0.0587
    113 H          -5.8329   -7.0983    3.4697 H       1  UNL1        0.2095
    114 H          -2.1606   -4.5314    3.1984 H       1  UNL1        0.0675
    115 H          -2.3302   -5.5660    1.2468 H       1  UNL1        0.2101
@<TRIPOS>BOND
     1     1     2    1
     2     2     3    1
     3     3     4    1
     4     4     5    1
     5     5     6    1
     6     6     7   ar
     7     7     8   ar
     8     8     9   ar
     9     9    10   ar
    10    10    11   ar
    11    11    12    1
    12    11    13   ar
    13    13    14    1
    14    14    15    1
    15    13    16   ar
    16    16    17    1
    17    16    18   ar
    18    18    19   ar
    19    19    20    2
    20     7    21    1
    21    21    22   ar
    22    22    23   ar
    23    23    24   ar
    24    24    25    1
    25    24    26   ar
    26    26    27    1
    27    27    28    1
    28    26    29   ar
    29     4    30    1
    30    30    31    1
    31    31    32    1
    32    32    33    1
    33    33    34    1
    34    34    35    1
    35    35    36    1
    36    36    37    1
    37    37    38    1
    38    36    39    1
    39    39    40    1
    40    39    41    1
    41    41    42    1
    42    41    43    1
    43    43    44    1
    44    44    45    1
    45    45    46    2
    46    45    47    1
    47    47    48    2
    48    48    49    1
    49    49    50   ar
    50    50    51   ar
    51    51    52   ar
    52    52    53    1
    53    52    54   ar
    54    54    55   ar
    55    31    56    1
    56    56    57    1
    57    56    58    1
    58    58    59    1
    59     1    60    1
    60    60    61    1
    61    61    62    1
    62    62    63    1
    63    62    64    1
    64    64    65    1
    65    62    66    1
    66    66    67    1
    67    66     1    1
    68    58     3    1
    69    19     6   ar
    70    29    21   ar
    71    43    34    1
    72    55    49   ar
    73    18     9   ar
    74     1    68    1
    75     3    69    1
    76     4    70    1
    77    10    71    1
    78    12    72    1
    79    15    73    1
    80    15    74    1
    81    15    75    1
    82    17    76    1
    83    22    77    1
    84    23    78    1
    85    25    79    1
    86    28    80    1
    87    28    81    1
    88    28    82    1
    89    29    83    1
    90    31    84    1
    91    32    85    1
    92    32    86    1
    93    34    87    1
    94    36    88    1
    95    37    89    1
    96    37    90    1
    97    38    91    1
    98    39    92    1
    99    40    93    1
   100    41    94    1
   101    42    95    1
   102    43    96    1
   103    47    97    1
   104    48    98    1
   105    50    99    1
   106    51   100    1
   107    53   101    1
   108    54   102    1
   109    55   103    1
   110    56   104    1
   111    57   105    1
   112    58   106    1
   113    59   107    1
   114    61   108    1
   115    61   109    1
   116    63   110    1
   117    64   111    1
   118    64   112    1
   119    65   113    1
   120    66   114    1
   121    67   115    1
