@<TRIPOS>MOLECULE
Delphinidin 3-O-arabinoside
 50 53 0 0 0
SMALL
GASTEIGER

@<TRIPOS>ATOM
      1 O           5.4918    0.1994   -0.6627 O.3     1  UNL1       -0.3869
      2 C           4.4919    1.1516   -0.9308 C.3     1  UNL1        0.1070
      3 C           3.5326    0.5872   -2.0112 C.3     1  UNL1        0.0802
      4 O           2.2033    0.4169   -1.5466 O.3     1  UNL1       -0.3369
      5 C           2.1837   -0.4002   -0.3878 C.3     1  UNL1        0.2309
      6 O           0.8413   -0.8055   -0.0949 O.3     1  UNL1       -0.4515
      7 C          -0.3059    0.0111   -0.0406 C.ar    1  UNL1        0.2288
      8 C          -0.2488    1.4092   -0.1728 C.ar    1  UNL1        0.0093
      9 C          -1.4156    2.1724   -0.0551 C.ar    1  UNL1        0.1241
     10 C          -1.4046    3.5762   -0.1697 C.ar    1  UNL1        0.1366
     11 O          -0.2117    4.2570   -0.4162 O.3     1  UNL1       -0.5057
     12 C          -2.6036    4.2915   -0.0343 C.ar    1  UNL1        0.0225
     13 C          -3.8076    3.6188    0.2153 C.ar    1  UNL1        0.1293
     14 O          -5.0002    4.3259    0.3509 O.3     1  UNL1       -0.5063
     15 C          -3.8164    2.2256    0.3302 C.ar    1  UNL1        0.0847
     16 C          -2.6287    1.4998    0.1964 C.ar    1  UNL1        0.3708
     17 O          -2.6514    0.1768    0.3069 O.2     1  UNL1       -0.1997
     18 C          -1.5650   -0.5839    0.1889 C.ar    1  UNL1        0.4047
     19 C          -1.7245   -2.0495    0.3233 C.ar    1  UNL1        0.0899
     20 C          -2.5688   -2.5637    1.3186 C.ar    1  UNL1       -0.0000
     21 C          -2.7513   -3.9466    1.4552 C.ar    1  UNL1        0.1628
     22 O          -3.5816   -4.4457    2.4578 O.3     1  UNL1       -0.5032
     23 C          -2.0966   -4.8296    0.5795 C.ar    1  UNL1        0.2006
     24 O          -2.2643   -6.2095    0.7030 O.3     1  UNL1       -0.5009
     25 C          -1.2678   -4.3189   -0.4341 C.ar    1  UNL1        0.1628
     26 O          -0.6156   -5.1684   -1.3275 O.3     1  UNL1       -0.5032
     27 C          -1.0905   -2.9375   -0.5620 C.ar    1  UNL1       -0.0000
     28 C           2.8743    0.2886    0.8284 C.3     1  UNL1        0.1454
     29 O           1.9432    0.7262    1.7850 O.3     1  UNL1       -0.3829
     30 C           3.7162    1.4937    0.3579 C.3     1  UNL1        0.1148
     31 O           4.5756    1.9558    1.3717 O.3     1  UNL1       -0.3864
     32 H           6.3108    0.6985   -0.4061 H       1  UNL1        0.2100
     33 H           4.9541    2.0887   -1.3250 H       1  UNL1        0.0643
     34 H           3.9145   -0.3719   -2.4287 H       1  UNL1        0.0588
     35 H           3.5013    1.2990   -2.8635 H       1  UNL1        0.0588
     36 H           2.7394   -1.3439   -0.5991 H       1  UNL1        0.1084
     37 H           0.6931    1.9075   -0.3383 H       1  UNL1        0.0667
     38 H          -0.1838    5.2664   -0.5015 H       1  UNL1        0.2922
     39 H          -2.5995    5.3707   -0.1223 H       1  UNL1        0.0691
     40 H          -5.0289    5.3359    0.2734 H       1  UNL1        0.2921
     41 H          -4.7474    1.7071    0.5233 H       1  UNL1        0.0749
     42 H          -3.0766   -1.8901    1.9987 H       1  UNL1        0.0664
     43 H          -4.0654   -3.8310    3.1020 H       1  UNL1        0.2923
     44 H          -2.8527   -6.6200    1.4180 H       1  UNL1        0.2924
     45 H          -0.7108   -6.1758   -1.2806 H       1  UNL1        0.2923
     46 H          -0.4746   -2.5615   -1.3694 H       1  UNL1        0.0664
     47 H           3.5596   -0.4559    1.3002 H       1  UNL1        0.0683
     48 H           1.6757   -0.0709    2.3132 H       1  UNL1        0.2102
     49 H           3.0227    2.3286    0.1139 H       1  UNL1        0.0648
     50 H           5.1353    1.1941    1.6736 H       1  UNL1        0.2100
@<TRIPOS>UNITY_ATOM_ATTR
17 1
charge 1
@<TRIPOS>BOND
     1     1     2    1
     2     2     3    1
     3     3     4    1
     4     4     5    1
     5     5     6    1
     6     6     7    1
     7     7     8   ar
     8     8     9   ar
     9     9    10   ar
    10    10    11    1
    11    10    12   ar
    12    12    13   ar
    13    13    14    1
    14    13    15   ar
    15    15    16   ar
    16    16    17   ar
    17    17    18   ar
    18    18    19    1
    19    19    20   ar
    20    20    21   ar
    21    21    22    1
    22    21    23   ar
    23    23    24    1
    24    23    25   ar
    25    25    26    1
    26    25    27   ar
    27     5    28    1
    28    28    29    1
    29    28    30    1
    30    30    31    1
    31    30     2    1
    32    18     7   ar
    33    27    19   ar
    34    16     9   ar
    35     1    32    1
    36     2    33    1
    37     3    34    1
    38     3    35    1
    39     5    36    1
    40     8    37    1
    41    11    38    1
    42    12    39    1
    43    14    40    1
    44    15    41    1
    45    20    42    1
    46    22    43    1
    47    24    44    1
    48    26    45    1
    49    27    46    1
    50    28    47    1
    51    29    48    1
    52    30    49    1
    53    31    50    1
