@<TRIPOS>MOLECULE
Spinacetin 3-O-(2"-feruloylglucosyl)(1->6)-[apiosyl(1->2)]-glucoside
 119 125 0 0 0
SMALL
GASTEIGER

@<TRIPOS>ATOM
      1 C          -4.4161   -4.1648   -0.2926 C.3     1  UNL1        0.1885
      2 O          -3.8483   -4.0317    0.9997 O.3     1  UNL1       -0.3366
      3 C          -2.5787   -3.3961    0.9471 C.3     1  UNL1        0.1519
      4 C          -2.6897   -1.9593    1.5377 C.3     1  UNL1        0.2315
      5 O          -2.9744   -1.0538    0.4741 O.3     1  UNL1       -0.4532
      6 C          -3.3058    0.3112    0.5560 C.ar    1  UNL1        0.2138
      7 C          -3.5498    0.9920   -0.6499 C.ar    1  UNL1        0.1810
      8 O          -3.9169    2.2675   -0.6390 O.2     1  UNL1       -0.4507
      9 C          -4.0509    2.9758    0.4746 C.ar    1  UNL1        0.1468
     10 C          -4.4316    4.3126    0.3813 C.ar    1  UNL1        0.0268
     11 C          -4.5817    5.0981    1.5282 C.ar    1  UNL1        0.1657
     12 O          -4.9637    6.4306    1.3838 O.3     1  UNL1       -0.5031
     13 C          -4.3454    4.5339    2.8052 C.ar    1  UNL1        0.2040
     14 O          -4.4740    5.2593    4.0055 O.3     1  UNL1       -0.4885
     15 C          -4.8468    6.6268    4.1341 C.3     1  UNL1        0.0791
     16 C          -3.9612    3.1787    2.9025 C.ar    1  UNL1        0.1769
     17 O          -3.7262    2.6163    4.1610 O.3     1  UNL1       -0.5027
     18 C          -3.8123    2.3892    1.7349 C.ar    1  UNL1        0.1128
     19 C          -3.4400    1.0256    1.7672 C.ar    1  UNL1        0.2383
     20 O          -3.2402    0.4500    2.8692 O.2     1  UNL1       -0.2830
     21 C          -3.4359    0.3029   -1.9528 C.ar    1  UNL1        0.0247
     22 C          -2.2965   -0.4516   -2.2730 C.ar    1  UNL1       -0.0473
     23 C          -2.2152   -1.1190   -3.4951 C.ar    1  UNL1       -0.0159
     24 C          -3.2649   -1.0413   -4.4150 C.ar    1  UNL1        0.1585
     25 O          -3.1531   -1.7297   -5.6229 O.3     1  UNL1       -0.5033
     26 C          -4.4095   -0.2794   -4.1158 C.ar    1  UNL1        0.1619
     27 O          -5.4522   -0.2262   -5.0544 O.3     1  UNL1       -0.4914
     28 C          -6.6789    0.4700   -4.8595 C.3     1  UNL1        0.0790
     29 C          -4.4801    0.4016   -2.8837 C.ar    1  UNL1       -0.0055
     30 O          -1.5212   -1.5411    2.2378 O.3     1  UNL1       -0.3313
     31 C          -0.3509   -1.9638    1.5665 C.3     1  UNL1        0.1144
     32 C           0.8434   -1.1376    2.0528 C.3     1  UNL1        0.0796
     33 O           1.9819   -1.4746    1.2821 O.3     1  UNL1       -0.3451
     34 C           2.8480   -0.3607    1.1438 C.3     1  UNL1        0.1993
     35 O           2.2784    0.6499    0.3188 O.3     1  UNL1       -0.3396
     36 C           2.0121    0.1677   -0.9893 C.3     1  UNL1        0.1131
     37 C           1.2161    1.2381   -1.7500 C.3     1  UNL1        0.0730
     38 O           0.8168    0.7627   -3.0084 O.3     1  UNL1       -0.3924
     39 C           3.3316   -0.2023   -1.7077 C.3     1  UNL1        0.1130
     40 O           4.1447    0.9357   -1.8596 O.3     1  UNL1       -0.3864
     41 C           4.0887   -1.2588   -0.8854 C.3     1  UNL1        0.1251
     42 O           3.4113   -2.4874   -0.9707 O.3     1  UNL1       -0.3853
     43 C           4.2121   -0.8184    0.5930 C.3     1  UNL1        0.1819
     44 O           5.1421    0.2604    0.7151 O.3     1  UNL1       -0.4504
     45 C           6.5297    0.0996    0.6387 C.2     1  UNL1        0.3324
     46 O           7.0361   -1.0504    0.5178 O.2     1  UNL1       -0.2456
     47 C           7.3849    1.2957    0.7047 C.2     1  UNL1        0.0231
     48 C           8.7229    1.2238    0.6588 C.2     1  UNL1       -0.0477
     49 C           9.6142    2.4083    0.7318 C.ar    1  UNL1       -0.0211
     50 C          10.9514    2.2214    1.1212 C.ar    1  UNL1       -0.0092
     51 C          11.8408    3.3117    1.1968 C.ar    1  UNL1        0.1618
     52 O          13.1793    3.1601    1.5921 O.3     1  UNL1       -0.4914
     53 C          13.7782    1.9198    1.9537 C.3     1  UNL1        0.0790
     54 C          11.3839    4.5947    0.8679 C.ar    1  UNL1        0.1585
     55 O          12.2584    5.6777    0.9416 O.3     1  UNL1       -0.5033
     56 C          10.0574    4.7853    0.4638 C.ar    1  UNL1       -0.0160
     57 C           9.1787    3.7028    0.3906 C.ar    1  UNL1       -0.0509
     58 C          -0.1741   -3.4987    1.7457 C.3     1  UNL1        0.1120
     59 O           0.4887   -3.7982    2.9496 O.3     1  UNL1       -0.3865
     60 C          -1.5555   -4.2061    1.7559 C.3     1  UNL1        0.1155
     61 O          -1.4442   -5.4960    1.2127 O.3     1  UNL1       -0.3863
     62 O          -4.5843   -2.8973   -0.9031 O.3     1  UNL1       -0.3457
     63 C          -5.9047   -2.8043   -1.3872 C.3     1  UNL1        0.0843
     64 C          -6.5696   -4.1803   -1.2996 C.3     1  UNL1        0.1425
     65 O          -6.4187   -4.8768   -2.5194 O.3     1  UNL1       -0.3812
     66 C          -8.0773   -4.0883   -0.9851 C.3     1  UNL1        0.0778
     67 O          -8.3107   -3.4029    0.2164 O.3     1  UNL1       -0.3920
     68 C          -5.7749   -4.8447   -0.1858 C.3     1  UNL1        0.1387
     69 O          -5.6570   -6.2322   -0.3695 O.3     1  UNL1       -0.3837
     70 H          -3.7508   -4.7852   -0.9384 H       1  UNL1        0.0938
     71 H          -2.1673   -3.3259   -0.0923 H       1  UNL1        0.0687
     72 H          -3.5384   -1.9522    2.2554 H       1  UNL1        0.1084
     73 H          -4.6117    4.7458   -0.5952 H       1  UNL1        0.0692
     74 H          -5.1349    6.8432    0.4741 H       1  UNL1        0.2923
     75 H          -5.8681    6.7868    3.7294 H       1  UNL1        0.0660
     76 H          -4.1079    7.2769    3.6202 H       1  UNL1        0.0660
     77 H          -4.8550    6.8960    5.2101 H       1  UNL1        0.0660
     78 H          -3.8190    3.1395    5.0231 H       1  UNL1        0.2923
     79 H          -1.4668   -0.5188   -1.5807 H       1  UNL1        0.0626
     80 H          -1.3322   -1.7003   -3.7288 H       1  UNL1        0.0655
     81 H          -3.8826   -1.7098   -6.3252 H       1  UNL1        0.2923
     82 H          -7.2116    0.0633   -3.9738 H       1  UNL1        0.0660
     83 H          -6.4853    1.5552   -4.7258 H       1  UNL1        0.0660
     84 H          -7.3200    0.3315   -5.7539 H       1  UNL1        0.0660
     85 H          -5.3537    0.9876   -2.6302 H       1  UNL1        0.0662
     86 H          -0.4373   -1.7421    0.4753 H       1  UNL1        0.0647
     87 H           1.0462   -1.3358    3.1273 H       1  UNL1        0.0587
     88 H           0.5568   -0.0630    1.9593 H       1  UNL1        0.0587
     89 H           3.0459    0.0827    2.1481 H       1  UNL1        0.0949
     90 H           1.3560   -0.7317   -0.9503 H       1  UNL1        0.0647
     91 H           0.3011    1.4796   -1.1674 H       1  UNL1        0.0584
     92 H           1.8020    2.1818   -1.8406 H       1  UNL1        0.0584
     93 H           1.5211    1.0285   -3.6549 H       1  UNL1        0.2095
     94 H           3.1018   -0.6488   -2.7050 H       1  UNL1        0.0647
     95 H           3.9515    1.3185   -2.7548 H       1  UNL1        0.2100
     96 H           5.1046   -1.3789   -1.3281 H       1  UNL1        0.0659
     97 H           4.0451   -3.1873   -0.6635 H       1  UNL1        0.2101
     98 H           4.5685   -1.6728    1.2118 H       1  UNL1        0.0813
     99 H           6.8866    2.2482    0.8177 H       1  UNL1        0.0689
    100 H           9.1940    0.2488    0.6071 H       1  UNL1        0.0626
    101 H          11.2910    1.2252    1.3726 H       1  UNL1        0.0661
    102 H          13.2573    1.4862    2.8334 H       1  UNL1        0.0660
    103 H          14.8405    2.0947    2.2209 H       1  UNL1        0.0660
    104 H          13.7389    1.2129    1.0981 H       1  UNL1        0.0660
    105 H          11.9595    6.6177    0.7094 H       1  UNL1        0.2923
    106 H           9.7071    5.7748    0.1980 H       1  UNL1        0.0655
    107 H           8.1713    3.8855    0.0438 H       1  UNL1        0.0625
    108 H           0.4151   -3.8787    0.8755 H       1  UNL1        0.0647
    109 H           1.4588   -3.8530    2.7452 H       1  UNL1        0.2100
    110 H          -1.9343   -4.2758    2.8041 H       1  UNL1        0.0648
    111 H          -0.9730   -6.0494    1.8889 H       1  UNL1        0.2100
    112 H          -5.8909   -2.4363   -2.4357 H       1  UNL1        0.0591
    113 H          -6.4405   -2.0470   -0.7754 H       1  UNL1        0.0591
    114 H          -5.4558   -4.8898   -2.7634 H       1  UNL1        0.2105
    115 H          -8.5902   -3.5586   -1.8195 H       1  UNL1        0.0587
    116 H          -8.4995   -5.1159   -0.9143 H       1  UNL1        0.0587
    117 H          -9.2954   -3.3893    0.3391 H       1  UNL1        0.2095
    118 H          -6.2142   -4.6245    0.8159 H       1  UNL1        0.0675
    119 H          -6.5331   -6.6240   -0.1168 H       1  UNL1        0.2101
@<TRIPOS>BOND
     1     1     2    1
     2     2     3    1
     3     3     4    1
     4     4     5    1
     5     5     6    1
     6     6     7   ar
     7     7     8   ar
     8     8     9   ar
     9     9    10   ar
    10    10    11   ar
    11    11    12    1
    12    11    13   ar
    13    13    14    1
    14    14    15    1
    15    13    16   ar
    16    16    17    1
    17    16    18   ar
    18    18    19   ar
    19    19    20    2
    20     7    21    1
    21    21    22   ar
    22    22    23   ar
    23    23    24   ar
    24    24    25    1
    25    24    26   ar
    26    26    27    1
    27    27    28    1
    28    26    29   ar
    29     4    30    1
    30    30    31    1
    31    31    32    1
    32    32    33    1
    33    33    34    1
    34    34    35    1
    35    35    36    1
    36    36    37    1
    37    37    38    1
    38    36    39    1
    39    39    40    1
    40    39    41    1
    41    41    42    1
    42    41    43    1
    43    43    44    1
    44    44    45    1
    45    45    46    2
    46    45    47    1
    47    47    48    2
    48    48    49    1
    49    49    50   ar
    50    50    51   ar
    51    51    52    1
    52    52    53    1
    53    51    54   ar
    54    54    55    1
    55    54    56   ar
    56    56    57   ar
    57    31    58    1
    58    58    59    1
    59    58    60    1
    60    60    61    1
    61     1    62    1
    62    62    63    1
    63    63    64    1
    64    64    65    1
    65    64    66    1
    66    66    67    1
    67    64    68    1
    68    68    69    1
    69    68     1    1
    70    60     3    1
    71    19     6   ar
    72    29    21   ar
    73    43    34    1
    74    57    49   ar
    75    18     9   ar
    76     1    70    1
    77     3    71    1
    78     4    72    1
    79    10    73    1
    80    12    74    1
    81    15    75    1
    82    15    76    1
    83    15    77    1
    84    17    78    1
    85    22    79    1
    86    23    80    1
    87    25    81    1
    88    28    82    1
    89    28    83    1
    90    28    84    1
    91    29    85    1
    92    31    86    1
    93    32    87    1
    94    32    88    1
    95    34    89    1
    96    36    90    1
    97    37    91    1
    98    37    92    1
    99    38    93    1
   100    39    94    1
   101    40    95    1
   102    41    96    1
   103    42    97    1
   104    43    98    1
   105    47    99    1
   106    48   100    1
   107    50   101    1
   108    53   102    1
   109    53   103    1
   110    53   104    1
   111    55   105    1
   112    56   106    1
   113    57   107    1
   114    58   108    1
   115    59   109    1
   116    60   110    1
   117    61   111    1
   118    63   112    1
   119    63   113    1
   120    65   114    1
   121    66   115    1
   122    66   116    1
   123    67   117    1
   124    68   118    1
   125    69   119    1
