@<TRIPOS>MOLECULE
Spinacetin 3-O-glucosyl-(1->6)-glucoside
 81 85 0 0 0
SMALL
GASTEIGER

@<TRIPOS>ATOM
      1 C           0.6658    0.4622   -3.2004 C.3     1  UNL1        0.0790
      2 O          -0.0884    1.6055   -2.8111 O.3     1  UNL1       -0.4914
      3 C          -1.1967    1.5732   -1.9498 C.ar    1  UNL1        0.1619
      4 C          -1.6440    0.3826   -1.3434 C.ar    1  UNL1       -0.0055
      5 C          -2.7597    0.3947   -0.4918 C.ar    1  UNL1        0.0247
      6 C          -3.4474    1.5929   -0.2668 C.ar    1  UNL1       -0.0473
      7 C          -2.9999    2.7783   -0.8531 C.ar    1  UNL1       -0.0159
      8 C          -1.8758    2.7725   -1.6903 C.ar    1  UNL1        0.1585
      9 O          -1.4292    3.9567   -2.2742 O.3     1  UNL1       -0.5033
     10 C          -3.2427   -0.8550    0.1164 C.ar    1  UNL1        0.1810
     11 C          -2.4493   -1.6059    1.0020 C.ar    1  UNL1        0.2138
     12 O          -1.2026   -1.1520    1.4556 O.3     1  UNL1       -0.4532
     13 C          -1.0243    0.0971    2.1407 C.3     1  UNL1        0.2311
     14 O          -0.2487    0.9932    1.3649 O.3     1  UNL1       -0.3313
     15 C           0.9981    0.4256    0.9744 C.3     1  UNL1        0.1144
     16 C           1.8333    1.5487    0.3423 C.3     1  UNL1        0.0796
     17 O           2.9156    0.9948   -0.3785 O.3     1  UNL1       -0.3460
     18 C           3.6912    2.0066   -0.9991 C.3     1  UNL1        0.1880
     19 O           3.8737    1.6390   -2.3625 O.3     1  UNL1       -0.3405
     20 C           5.0768    2.1106   -2.9653 C.3     1  UNL1        0.1130
     21 C           4.8429    2.2173   -4.4798 C.3     1  UNL1        0.0730
     22 O           6.0458    2.4758   -5.1550 O.3     1  UNL1       -0.3924
     23 C           5.5941    3.4470   -2.3710 C.3     1  UNL1        0.1119
     24 O           4.6445    4.4593   -2.5985 O.3     1  UNL1       -0.3865
     25 C           5.8633    3.2976   -0.8521 C.3     1  UNL1        0.1141
     26 O           7.2333    3.0670   -0.6370 O.3     1  UNL1       -0.3864
     27 C           5.0189    2.1627   -0.2242 C.3     1  UNL1        0.1341
     28 O           5.7340    0.9510   -0.2477 O.3     1  UNL1       -0.3841
     29 C           1.7215   -0.3097    2.1546 C.3     1  UNL1        0.1120
     30 O           3.1229   -0.1731    2.1140 O.3     1  UNL1       -0.3865
     31 C           1.1403    0.1393    3.5063 C.3     1  UNL1        0.1152
     32 O           1.7855   -0.5408    4.5526 O.3     1  UNL1       -0.3864
     33 C          -0.3844   -0.1166    3.5387 C.3     1  UNL1        0.1454
     34 O          -0.6489   -1.4156    4.0070 O.3     1  UNL1       -0.3829
     35 C          -2.9243   -2.8441    1.4469 C.ar    1  UNL1        0.2383
     36 O          -2.1558   -3.5658    2.1354 O.2     1  UNL1       -0.2830
     37 C          -4.2310   -3.2682    1.0994 C.ar    1  UNL1        0.1128
     38 C          -4.9547   -2.4416    0.2062 C.ar    1  UNL1        0.1468
     39 O          -4.4448   -1.2956   -0.2302 O.2     1  UNL1       -0.4507
     40 C          -6.2110   -2.8271   -0.2517 C.ar    1  UNL1        0.0268
     41 C          -6.7674   -4.0421    0.1349 C.ar    1  UNL1        0.1657
     42 O          -8.0102   -4.3998   -0.3899 O.3     1  UNL1       -0.5031
     43 C          -6.0907   -4.8817    1.0367 C.ar    1  UNL1        0.2040
     44 O          -6.7224   -6.0946    1.3759 O.3     1  UNL1       -0.4885
     45 C          -6.1820   -7.1456    2.1696 C.3     1  UNL1        0.0791
     46 C          -4.8388   -4.4712    1.5705 C.ar    1  UNL1        0.1769
     47 O          -4.2597   -5.2398    2.5831 O.3     1  UNL1       -0.5027
     48 H           1.4751    0.7798   -3.8894 H       1  UNL1        0.0660
     49 H           0.0124   -0.2641   -3.7280 H       1  UNL1        0.0660
     50 H           1.1261   -0.0158   -2.3114 H       1  UNL1        0.0660
     51 H          -1.1363   -0.5544   -1.5306 H       1  UNL1        0.0662
     52 H          -4.3198    1.6114    0.3750 H       1  UNL1        0.0626
     53 H          -3.5299    3.7021   -0.6592 H       1  UNL1        0.0655
     54 H          -1.8975    4.8397   -2.1077 H       1  UNL1        0.2923
     55 H          -2.0187    0.5685    2.3062 H       1  UNL1        0.1084
     56 H           0.8111   -0.3171    0.1664 H       1  UNL1        0.0647
     57 H           1.1730    2.1169   -0.3516 H       1  UNL1        0.0587
     58 H           2.1900    2.2451    1.1345 H       1  UNL1        0.0587
     59 H           3.1794    3.0012   -0.9968 H       1  UNL1        0.0937
     60 H           5.8628    1.3364   -2.8178 H       1  UNL1        0.0647
     61 H           4.4433    1.2483   -4.8483 H       1  UNL1        0.0584
     62 H           4.0751    2.9935   -4.7059 H       1  UNL1        0.0584
     63 H           6.1051    3.4594   -5.2743 H       1  UNL1        0.2095
     64 H           6.5479    3.7186   -2.8823 H       1  UNL1        0.0647
     65 H           5.1195    5.3262   -2.5049 H       1  UNL1        0.2100
     66 H           5.5839    4.2575   -0.3557 H       1  UNL1        0.0648
     67 H           7.4016    3.2214    0.3295 H       1  UNL1        0.2100
     68 H           4.7958    2.4444    0.8323 H       1  UNL1        0.0671
     69 H           5.3473    0.3711    0.4589 H       1  UNL1        0.2101
     70 H           1.5059   -1.3969    2.0519 H       1  UNL1        0.0647
     71 H           3.3594    0.7189    2.4792 H       1  UNL1        0.2100
     72 H           1.3215    1.2358    3.6112 H       1  UNL1        0.0648
     73 H           1.5505   -0.0616    5.3899 H       1  UNL1        0.2100
     74 H          -0.8222    0.6216    4.2516 H       1  UNL1        0.0683
     75 H          -1.6109   -1.4395    4.2524 H       1  UNL1        0.2102
     76 H          -6.7499   -2.1880   -0.9408 H       1  UNL1        0.0692
     77 H          -8.4731   -5.2681   -0.1500 H       1  UNL1        0.2923
     78 H          -6.0769   -6.8163    3.2243 H       1  UNL1        0.0660
     79 H          -6.8819   -8.0057    2.1481 H       1  UNL1        0.0660
     80 H          -5.2073   -7.4800    1.7557 H       1  UNL1        0.0660
     81 H          -3.6292   -4.8760    3.2828 H       1  UNL1        0.2923
@<TRIPOS>BOND
     1     1     2    1
     2     2     3    1
     3     3     4   ar
     4     4     5   ar
     5     5     6   ar
     6     6     7   ar
     7     7     8   ar
     8     8     9    1
     9     5    10    1
    10    10    11   ar
    11    11    12    1
    12    12    13    1
    13    13    14    1
    14    14    15    1
    15    15    16    1
    16    16    17    1
    17    17    18    1
    18    18    19    1
    19    19    20    1
    20    20    21    1
    21    21    22    1
    22    20    23    1
    23    23    24    1
    24    23    25    1
    25    25    26    1
    26    25    27    1
    27    27    28    1
    28    15    29    1
    29    29    30    1
    30    29    31    1
    31    31    32    1
    32    31    33    1
    33    33    34    1
    34    11    35   ar
    35    35    36    2
    36    35    37   ar
    37    37    38   ar
    38    38    39   ar
    39    38    40   ar
    40    40    41   ar
    41    41    42    1
    42    41    43   ar
    43    43    44    1
    44    44    45    1
    45    43    46   ar
    46    46    47    1
    47     8     3   ar
    48    39    10   ar
    49    33    13    1
    50    46    37   ar
    51    27    18    1
    52     1    48    1
    53     1    49    1
    54     1    50    1
    55     4    51    1
    56     6    52    1
    57     7    53    1
    58     9    54    1
    59    13    55    1
    60    15    56    1
    61    16    57    1
    62    16    58    1
    63    18    59    1
    64    20    60    1
    65    21    61    1
    66    21    62    1
    67    22    63    1
    68    23    64    1
    69    24    65    1
    70    25    66    1
    71    26    67    1
    72    27    68    1
    73    28    69    1
    74    29    70    1
    75    30    71    1
    76    31    72    1
    77    32    73    1
    78    33    74    1
    79    34    75    1
    80    40    76    1
    81    42    77    1
    82    45    78    1
    83    45    79    1
    84    45    80    1
    85    47    81    1
