@<TRIPOS>MOLECULE
Jaceidin 4'-O-glucuronide
 62 65 0 0 0
SMALL
GASTEIGER

@<TRIPOS>ATOM
      1 C          -4.3784   -0.7346   -0.4992 C.3     1  UNL1        0.2314
      2 O          -3.3601   -1.3434    0.2935 O.3     1  UNL1       -0.4572
      3 C          -1.9909   -1.0387    0.2197 C.ar    1  UNL1        0.1654
      4 C          -1.4800   -0.0965   -0.6928 C.ar    1  UNL1       -0.0155
      5 C          -0.1117    0.1748   -0.7369 C.ar    1  UNL1       -0.0473
      6 C           0.7744   -0.4973    0.1152 C.ar    1  UNL1        0.0247
      7 C           0.2644   -1.4212    1.0427 C.ar    1  UNL1       -0.0055
      8 C          -1.1150   -1.7023    1.0921 C.ar    1  UNL1        0.1623
      9 O          -1.6540   -2.6315    1.9965 O.3     1  UNL1       -0.4914
     10 C          -0.8887   -3.3879    2.9291 C.3     1  UNL1        0.0790
     11 C           2.2194   -0.1772    0.0634 C.ar    1  UNL1        0.1809
     12 C           3.2068   -1.1802    0.0977 C.ar    1  UNL1        0.2107
     13 O           2.7883   -2.5264    0.1174 O.3     1  UNL1       -0.4883
     14 C           3.6227   -3.6732    0.2404 C.3     1  UNL1        0.0791
     15 C           4.5643   -0.7826    0.0710 C.ar    1  UNL1        0.2382
     16 O           5.4670   -1.6561    0.0051 O.2     1  UNL1       -0.2830
     17 C           4.8968    0.5952    0.0531 C.ar    1  UNL1        0.1128
     18 C           3.8281    1.5124   -0.0673 C.ar    1  UNL1        0.1468
     19 O           2.5691    1.0978   -0.0458 O.2     1  UNL1       -0.4507
     20 C           4.0772    2.8738   -0.2186 C.ar    1  UNL1        0.0268
     21 C           5.3849    3.3539   -0.2716 C.ar    1  UNL1        0.1657
     22 O           5.6201    4.7145   -0.4671 O.3     1  UNL1       -0.5031
     23 C           6.4696    2.4818   -0.1213 C.ar    1  UNL1        0.2040
     24 O           7.7532    3.0586   -0.1825 O.3     1  UNL1       -0.4885
     25 C           8.9977    2.3679   -0.1620 C.3     1  UNL1        0.0791
     26 C           6.2328    1.0986    0.1002 C.ar    1  UNL1        0.1769
     27 O           7.3177    0.2751    0.4103 O.3     1  UNL1       -0.5027
     28 O          -4.4667    0.6386   -0.1572 O.3     1  UNL1       -0.3221
     29 C          -5.3834    1.3054   -1.0074 C.3     1  UNL1        0.1869
     30 C          -5.3253    2.7740   -0.7077 C.2     1  UNL1        0.3367
     31 O          -5.3290    3.2152    0.6125 O.3     1  UNL1       -0.4788
     32 O          -5.3042    3.6113   -1.6494 O.2     1  UNL1       -0.2480
     33 C          -6.8146    0.7758   -0.7782 C.3     1  UNL1        0.1202
     34 O          -7.6991    1.4087   -1.6677 O.3     1  UNL1       -0.3860
     35 C          -6.8403   -0.7490   -1.0110 C.3     1  UNL1        0.1157
     36 O          -8.0950   -1.2898   -0.6776 O.3     1  UNL1       -0.3863
     37 C          -5.7180   -1.4389   -0.2142 C.3     1  UNL1        0.1455
     38 O          -5.6452   -2.7892   -0.5937 O.3     1  UNL1       -0.3829
     39 H          -4.1140   -0.8681   -1.5749 H       1  UNL1        0.1084
     40 H          -2.1306    0.4329   -1.3748 H       1  UNL1        0.0655
     41 H           0.2586    0.9030   -1.4485 H       1  UNL1        0.0626
     42 H           0.9400   -1.9009    1.7373 H       1  UNL1        0.0662
     43 H          -1.5688   -4.0493    3.5038 H       1  UNL1        0.0660
     44 H          -0.1481   -4.0186    2.3932 H       1  UNL1        0.0660
     45 H          -0.3711   -2.7083    3.6386 H       1  UNL1        0.0660
     46 H           4.2711   -3.7750   -0.6548 H       1  UNL1        0.0660
     47 H           2.9821   -4.5762    0.3076 H       1  UNL1        0.0660
     48 H           4.2323   -3.6081    1.1663 H       1  UNL1        0.0660
     49 H           3.2463    3.5616   -0.3194 H       1  UNL1        0.0692
     50 H           4.8597    5.3754   -0.5772 H       1  UNL1        0.2923
     51 H           9.0306    1.6076   -0.9707 H       1  UNL1        0.0660
     52 H           9.1624    1.9014    0.8316 H       1  UNL1        0.0660
     53 H           9.8146    3.0974   -0.3374 H       1  UNL1        0.0660
     54 H           7.2462   -0.5735    0.9536 H       1  UNL1        0.2923
     55 H          -5.0950    1.1624   -2.0764 H       1  UNL1        0.0742
     56 H          -5.3026    4.2042    0.8297 H       1  UNL1        0.2951
     57 H          -7.1083    0.9950    0.2768 H       1  UNL1        0.0652
     58 H          -8.6114    1.2991   -1.2918 H       1  UNL1        0.2100
     59 H          -6.6671   -0.9387   -2.0944 H       1  UNL1        0.0648
     60 H          -8.2536   -1.1130    0.2867 H       1  UNL1        0.2100
     61 H          -5.9447   -1.3570    0.8758 H       1  UNL1        0.0683
     62 H          -5.1838   -3.2710    0.1416 H       1  UNL1        0.2102
@<TRIPOS>BOND
     1     1     2    1
     2     2     3    1
     3     3     4   ar
     4     4     5   ar
     5     5     6   ar
     6     6     7   ar
     7     7     8   ar
     8     8     9    1
     9     9    10    1
    10     6    11    1
    11    11    12   ar
    12    12    13    1
    13    13    14    1
    14    12    15   ar
    15    15    16    2
    16    15    17   ar
    17    17    18   ar
    18    18    19   ar
    19    18    20   ar
    20    20    21   ar
    21    21    22    1
    22    21    23   ar
    23    23    24    1
    24    24    25    1
    25    23    26   ar
    26    26    27    1
    27     1    28    1
    28    28    29    1
    29    29    30    1
    30    30    31    1
    31    30    32    2
    32    29    33    1
    33    33    34    1
    34    33    35    1
    35    35    36    1
    36    35    37    1
    37    37    38    1
    38    37     1    1
    39     8     3   ar
    40    19    11   ar
    41    26    17   ar
    42     1    39    1
    43     4    40    1
    44     5    41    1
    45     7    42    1
    46    10    43    1
    47    10    44    1
    48    10    45    1
    49    14    46    1
    50    14    47    1
    51    14    48    1
    52    20    49    1
    53    22    50    1
    54    25    51    1
    55    25    52    1
    56    25    53    1
    57    27    54    1
    58    29    55    1
    59    31    56    1
    60    33    57    1
    61    34    58    1
    62    35    59    1
    63    36    60    1
    64    37    61    1
    65    38    62    1
