@<TRIPOS>MOLECULE
5,3',4'-Trihydroxy-3-methoxy-6:7-methylenedioxyflavone 4'-O-glucuronide
 57 61 0 0 0
SMALL
GASTEIGER

@<TRIPOS>ATOM
      1 C          -4.1000    0.3017   -0.7040 C.3     1  UNL1        0.2314
      2 O          -3.1216   -0.6998   -0.9786 O.3     1  UNL1       -0.4572
      3 C          -1.7380   -0.6204   -0.7334 C.ar    1  UNL1        0.1652
      4 C          -0.9862   -1.7736   -0.9877 C.ar    1  UNL1       -0.0155
      5 C           0.3917   -1.7975   -0.7679 C.ar    1  UNL1       -0.0473
      6 C           1.0503   -0.6623   -0.2734 C.ar    1  UNL1        0.0247
      7 C           0.3116    0.5065   -0.0417 C.ar    1  UNL1       -0.0057
      8 C          -1.0745    0.5398   -0.2615 C.ar    1  UNL1        0.1592
      9 O          -1.7669    1.7234   -0.0150 O.3     1  UNL1       -0.5033
     10 C           2.5151   -0.6562   -0.0559 C.ar    1  UNL1        0.1809
     11 C           3.1760   -1.7175    0.5932 C.ar    1  UNL1        0.2107
     12 O           2.3935   -2.7773    1.0960 O.3     1  UNL1       -0.4883
     13 C           2.8688   -3.9569    1.7358 C.3     1  UNL1        0.0791
     14 C           4.5822   -1.6465    0.7376 C.ar    1  UNL1        0.2382
     15 O           5.1896   -2.5515    1.3634 O.2     1  UNL1       -0.2830
     16 C           5.2901   -0.5368    0.2169 C.ar    1  UNL1        0.1128
     17 C           6.7172   -0.3860    0.2725 C.ar    1  UNL1        0.1771
     18 O           7.6087   -1.3660    0.7178 O.3     1  UNL1       -0.5027
     19 C           7.2581    0.8163   -0.1780 C.ar    1  UNL1        0.2083
     20 C           6.4991    1.8079   -0.7006 C.ar    1  UNL1        0.1734
     21 O           7.3076    2.8639   -1.0750 O.3     1  UNL1       -0.4523
     22 C           8.6633    2.5129   -0.7693 C.3     1  UNL1        0.2334
     23 O           8.5868    1.1981   -0.2027 O.3     1  UNL1       -0.4489
     24 C           5.1238    1.6943   -0.8227 C.ar    1  UNL1        0.0272
     25 C           4.5126    0.5155   -0.3619 C.ar    1  UNL1        0.1468
     26 O           3.1975    0.4022   -0.4732 O.2     1  UNL1       -0.4507
     27 O          -4.1397    0.5271    0.6970 O.3     1  UNL1       -0.3221
     28 C          -5.2503    1.2961    1.1589 C.3     1  UNL1        0.1869
     29 C          -6.0644    0.4639    2.1102 C.2     1  UNL1        0.3367
     30 O          -6.0256   -0.9258    2.0400 O.3     1  UNL1       -0.4788
     31 O          -6.8028    1.0261    2.9631 O.2     1  UNL1       -0.2480
     32 C          -6.1511    1.9364    0.0643 C.3     1  UNL1        0.1202
     33 O          -5.4700    3.0382   -0.4841 O.3     1  UNL1       -0.3860
     34 C          -6.5188    0.9296   -1.0596 C.3     1  UNL1        0.1157
     35 O          -7.7953    0.3761   -0.8522 O.3     1  UNL1       -0.3863
     36 C          -5.4623   -0.1837   -1.2283 C.3     1  UNL1        0.1455
     37 O          -5.3661   -0.5281   -2.5879 O.3     1  UNL1       -0.3829
     38 H          -3.8163    1.2305   -1.2461 H       1  UNL1        0.1084
     39 H          -1.4771   -2.6620   -1.3651 H       1  UNL1        0.0655
     40 H           0.9439   -2.6981   -1.0051 H       1  UNL1        0.0626
     41 H           0.8132    1.3959    0.3211 H       1  UNL1        0.0662
     42 H          -1.2995    2.5571    0.3219 H       1  UNL1        0.2923
     43 H           3.3709   -3.7003    2.6920 H       1  UNL1        0.0660
     44 H           2.0043   -4.6132    1.9645 H       1  UNL1        0.0660
     45 H           3.5568   -4.5097    1.0619 H       1  UNL1        0.0660
     46 H           7.3857   -2.3443    0.8189 H       1  UNL1        0.2923
     47 H           9.2734    2.4958   -1.6967 H       1  UNL1        0.1166
     48 H           9.0861    3.2249   -0.0299 H       1  UNL1        0.1166
     49 H           4.5400    2.4964   -1.2559 H       1  UNL1        0.0692
     50 H          -4.8300    2.1314    1.7613 H       1  UNL1        0.0742
     51 H          -6.5801   -1.4938    2.6692 H       1  UNL1        0.2951
     52 H          -7.0871    2.3099    0.5459 H       1  UNL1        0.0652
     53 H          -6.1514    3.6134   -0.9213 H       1  UNL1        0.2100
     54 H          -6.5753    1.5003   -2.0137 H       1  UNL1        0.0648
     55 H          -7.7863   -0.0900    0.0232 H       1  UNL1        0.2100
     56 H          -5.7654   -1.0778   -0.6336 H       1  UNL1        0.0683
     57 H          -5.0157   -1.4562   -2.6302 H       1  UNL1        0.2102
@<TRIPOS>BOND
     1     1     2    1
     2     2     3    1
     3     3     4   ar
     4     4     5   ar
     5     5     6   ar
     6     6     7   ar
     7     7     8   ar
     8     8     9    1
     9     6    10    1
    10    10    11   ar
    11    11    12    1
    12    12    13    1
    13    11    14   ar
    14    14    15    2
    15    14    16   ar
    16    16    17   ar
    17    17    18    1
    18    17    19   ar
    19    19    20   ar
    20    20    21    1
    21    21    22    1
    22    22    23    1
    23    20    24   ar
    24    24    25   ar
    25    25    26   ar
    26     1    27    1
    27    27    28    1
    28    28    29    1
    29    29    30    1
    30    29    31    2
    31    28    32    1
    32    32    33    1
    33    32    34    1
    34    34    35    1
    35    34    36    1
    36    36    37    1
    37    36     1    1
    38     8     3   ar
    39    26    10   ar
    40    25    16   ar
    41    23    19    1
    42     1    38    1
    43     4    39    1
    44     5    40    1
    45     7    41    1
    46     9    42    1
    47    13    43    1
    48    13    44    1
    49    13    45    1
    50    18    46    1
    51    22    47    1
    52    22    48    1
    53    24    49    1
    54    28    50    1
    55    30    51    1
    56    32    52    1
    57    33    53    1
    58    34    54    1
    59    35    55    1
    60    36    56    1
    61    37    57    1
