@<TRIPOS>MOLECULE
5,4'-Dihydroxy-3,3'-dimethoxy-6:7-methylenedioxyflavone 4'-O-glucuronide
 60 64 0 0 0
SMALL
GASTEIGER

@<TRIPOS>ATOM
      1 C          -4.1835   -0.0311   -0.5706 C.3     1  UNL1        0.2314
      2 O          -3.1147   -0.9214   -0.8921 O.3     1  UNL1       -0.4572
      3 C          -1.7484   -0.6428   -0.7207 C.ar    1  UNL1        0.1654
      4 C          -1.2880    0.6039   -0.2566 C.ar    1  UNL1       -0.0155
      5 C           0.0784    0.8371   -0.0944 C.ar    1  UNL1       -0.0473
      6 C           1.0103   -0.1695   -0.3792 C.ar    1  UNL1        0.0247
      7 C           0.5554   -1.4052   -0.8689 C.ar    1  UNL1       -0.0055
      8 C          -0.8222   -1.6496   -1.0326 C.ar    1  UNL1        0.1623
      9 O          -1.3096   -2.8790   -1.5043 O.3     1  UNL1       -0.4914
     10 C          -0.4927   -3.9944   -1.8453 C.3     1  UNL1        0.0790
     11 C           2.4559    0.1086   -0.2177 C.ar    1  UNL1        0.1809
     12 C           3.3288   -0.8174    0.3866 C.ar    1  UNL1        0.2107
     13 O           2.7786   -2.0100    0.8997 O.3     1  UNL1       -0.4883
     14 C           3.4927   -3.0946    1.4831 C.3     1  UNL1        0.0791
     15 C           4.7018   -0.4866    0.4786 C.ar    1  UNL1        0.2382
     16 O           5.4917   -1.2682    1.0658 O.2     1  UNL1       -0.2830
     17 C           5.1689    0.7409   -0.0494 C.ar    1  UNL1        0.1128
     18 C           6.5441    1.1546   -0.0460 C.ar    1  UNL1        0.1771
     19 O           7.6197    0.3534    0.3470 O.3     1  UNL1       -0.5027
     20 C           6.8330    2.4414   -0.4954 C.ar    1  UNL1        0.2083
     21 C           5.8820    3.2794   -0.9706 C.ar    1  UNL1        0.1734
     22 O           6.4639    4.4714   -1.3569 O.3     1  UNL1       -0.4523
     23 C           7.8726    4.3763   -1.1099 C.3     1  UNL1        0.2334
     24 O           8.0654    3.0646   -0.5643 O.3     1  UNL1       -0.4489
     25 C           4.5480    2.9124   -1.0418 C.ar    1  UNL1        0.0272
     26 C           4.1861    1.6356   -0.5790 C.ar    1  UNL1        0.1468
     27 O           2.9116    1.2801   -0.6417 O.2     1  UNL1       -0.4507
     28 O          -4.1627    0.2151    0.8293 O.3     1  UNL1       -0.3221
     29 C          -5.3446    0.8709    1.2406 C.3     1  UNL1        0.1869
     30 C          -5.1363    1.4258    2.6183 C.2     1  UNL1        0.3367
     31 O          -4.4726    0.6694    3.5799 O.3     1  UNL1       -0.4788
     32 O          -5.5938    2.5612    2.9184 O.2     1  UNL1       -0.2480
     33 C          -6.5345   -0.1228    1.2327 C.3     1  UNL1        0.1202
     34 O          -7.7335    0.5801    1.0248 O.3     1  UNL1       -0.3860
     35 C          -6.3670   -1.1904    0.1191 C.3     1  UNL1        0.1157
     36 O          -5.8180   -2.3819    0.6315 O.3     1  UNL1       -0.3863
     37 C          -5.5219   -0.6654   -1.0598 C.3     1  UNL1        0.1455
     38 O          -6.2746    0.2890   -1.7656 O.3     1  UNL1       -0.3829
     39 H          -4.0096    0.9247   -1.1162 H       1  UNL1        0.1084
     40 H          -1.9763    1.4026   -0.0186 H       1  UNL1        0.0655
     41 H           0.4091    1.8035    0.2667 H       1  UNL1        0.0626
     42 H           1.2762   -2.1638   -1.1409 H       1  UNL1        0.0662
     43 H           0.0927   -4.3238   -0.9608 H       1  UNL1        0.0660
     44 H          -1.1417   -4.8318   -2.1737 H       1  UNL1        0.0660
     45 H           0.1904   -3.7267   -2.6789 H       1  UNL1        0.0660
     46 H           4.2389   -3.4947    0.7647 H       1  UNL1        0.0660
     47 H           2.7757   -3.9048    1.7274 H       1  UNL1        0.0660
     48 H           3.9827   -2.7704    2.4249 H       1  UNL1        0.0660
     49 H           7.5866   -0.6504    0.4387 H       1  UNL1        0.2923
     50 H           8.4366    4.4829   -2.0602 H       1  UNL1        0.1166
     51 H           8.1857    5.1470   -0.3747 H       1  UNL1        0.1166
     52 H           3.8079    3.5960   -1.4379 H       1  UNL1        0.0692
     53 H          -5.5635    1.7308    0.5615 H       1  UNL1        0.0742
     54 H          -4.3376    1.0252    4.5187 H       1  UNL1        0.2951
     55 H          -6.5948   -0.6622    2.2089 H       1  UNL1        0.0652
     56 H          -7.9520    1.0357    1.8795 H       1  UNL1        0.2100
     57 H          -7.3738   -1.4548   -0.2742 H       1  UNL1        0.0648
     58 H          -4.9438   -2.1680    1.0483 H       1  UNL1        0.2100
     59 H          -5.3110   -1.5266   -1.7380 H       1  UNL1        0.0683
     60 H          -5.8488    0.3884   -2.6572 H       1  UNL1        0.2102
@<TRIPOS>BOND
     1     1     2    1
     2     2     3    1
     3     3     4   ar
     4     4     5   ar
     5     5     6   ar
     6     6     7   ar
     7     7     8   ar
     8     8     9    1
     9     9    10    1
    10     6    11    1
    11    11    12   ar
    12    12    13    1
    13    13    14    1
    14    12    15   ar
    15    15    16    2
    16    15    17   ar
    17    17    18   ar
    18    18    19    1
    19    18    20   ar
    20    20    21   ar
    21    21    22    1
    22    22    23    1
    23    23    24    1
    24    21    25   ar
    25    25    26   ar
    26    26    27   ar
    27     1    28    1
    28    28    29    1
    29    29    30    1
    30    30    31    1
    31    30    32    2
    32    29    33    1
    33    33    34    1
    34    33    35    1
    35    35    36    1
    36    35    37    1
    37    37    38    1
    38    37     1    1
    39     8     3   ar
    40    27    11   ar
    41    26    17   ar
    42    24    20    1
    43     1    39    1
    44     4    40    1
    45     5    41    1
    46     7    42    1
    47    10    43    1
    48    10    44    1
    49    10    45    1
    50    14    46    1
    51    14    47    1
    52    14    48    1
    53    19    49    1
    54    23    50    1
    55    23    51    1
    56    25    52    1
    57    29    53    1
    58    31    54    1
    59    33    55    1
    60    34    56    1
    61    35    57    1
    62    36    58    1
    63    37    59    1
    64    38    60    1
