@<TRIPOS>MOLECULE
Kaempferol 3-O-xylosyl-glucoside
 69 73 0 0 0
SMALL
GASTEIGER

@<TRIPOS>ATOM
      1 C           5.3509    0.1788    2.5333 C.3     1  UNL1        0.1131
      2 C           5.9606    1.5721    2.7441 C.3     1  UNL1        0.0730
      3 O           5.7159    2.3896    1.6321 O.3     1  UNL1       -0.3924
      4 O           3.9955    0.2901    2.1536 O.3     1  UNL1       -0.3405
      5 C           3.7561   -0.6146    1.0938 C.3     1  UNL1        0.1880
      6 O           3.5531    0.1131   -0.1041 O.3     1  UNL1       -0.3460
      7 C           2.2463    0.6573   -0.1578 C.3     1  UNL1        0.0796
      8 C           1.3015   -0.2683   -0.9393 C.3     1  UNL1        0.1144
      9 O           0.0268    0.3413   -1.0099 O.3     1  UNL1       -0.3313
     10 C          -0.9581   -0.6011   -1.4133 C.3     1  UNL1        0.2311
     11 O          -2.1619    0.1060   -1.7067 O.3     1  UNL1       -0.4532
     12 C          -2.9086    0.7505   -0.7147 C.ar    1  UNL1        0.2138
     13 C          -3.6394    0.0278    0.2518 C.ar    1  UNL1        0.1809
     14 O          -4.2731    0.6814    1.2214 O.2     1  UNL1       -0.4507
     15 C          -4.2899    2.0063    1.3181 C.ar    1  UNL1        0.1465
     16 C          -4.9861    2.6033    2.3731 C.ar    1  UNL1        0.0231
     17 C          -5.0293    3.9932    2.4941 C.ar    1  UNL1        0.1239
     18 O          -5.7292    4.5686    3.5525 O.3     1  UNL1       -0.5065
     19 C          -4.3721    4.7954    1.5542 C.ar    1  UNL1        0.0223
     20 C          -3.6663    4.2158    0.4894 C.ar    1  UNL1        0.1348
     21 O          -3.0192    5.0409   -0.4313 O.3     1  UNL1       -0.5058
     22 C          -3.6190    2.8068    0.3636 C.ar    1  UNL1        0.1092
     23 C          -2.9213    2.1483   -0.6688 C.ar    1  UNL1        0.2382
     24 O          -2.2910    2.7971   -1.5477 O.2     1  UNL1       -0.2830
     25 C          -3.7346   -1.4492    0.2297 C.ar    1  UNL1        0.0213
     26 C          -3.6563   -2.1669    1.4344 C.ar    1  UNL1       -0.0475
     27 C          -3.7419   -3.5624    1.4334 C.ar    1  UNL1       -0.0195
     28 C          -3.9203   -4.2559    0.2325 C.ar    1  UNL1        0.1169
     29 O          -3.9997   -5.6465    0.2462 O.3     1  UNL1       -0.5068
     30 C          -4.0212   -3.5462   -0.9710 C.ar    1  UNL1       -0.0195
     31 C          -3.9378   -2.1509   -0.9728 C.ar    1  UNL1       -0.0475
     32 C          -0.5389   -1.4171   -2.6694 C.3     1  UNL1        0.1454
     33 O          -0.2118   -2.7292   -2.2847 O.3     1  UNL1       -0.3829
     34 C           0.6696   -0.7591   -3.3683 C.3     1  UNL1        0.1152
     35 O           0.2887    0.4865   -3.8978 O.3     1  UNL1       -0.3864
     36 C           1.8348   -0.5519   -2.3698 C.3     1  UNL1        0.1120
     37 O           2.6487   -1.6974   -2.3343 O.3     1  UNL1       -0.3865
     38 C           4.9785   -1.5156    0.9255 C.3     1  UNL1        0.1341
     39 O           4.8223   -2.7360    1.6126 O.3     1  UNL1       -0.3841
     40 C           6.0968   -0.6915    1.5166 C.3     1  UNL1        0.1141
     41 O           6.6991    0.0889    0.5140 O.3     1  UNL1       -0.3864
     42 H           5.3820   -0.3449    3.5153 H       1  UNL1        0.0647
     43 H           7.0561    1.4797    2.9197 H       1  UNL1        0.0584
     44 H           5.4989    2.0325    3.6461 H       1  UNL1        0.0584
     45 H           6.1448    3.2618    1.8323 H       1  UNL1        0.2095
     46 H           2.8726   -1.2494    1.3396 H       1  UNL1        0.0937
     47 H           2.3032    1.6363   -0.6802 H       1  UNL1        0.0587
     48 H           1.8177    0.8743    0.8496 H       1  UNL1        0.0587
     49 H           1.2332   -1.2247   -0.3676 H       1  UNL1        0.0647
     50 H          -1.1539   -1.3002   -0.5693 H       1  UNL1        0.1084
     51 H          -5.4974    1.9846    3.1005 H       1  UNL1        0.0691
     52 H          -5.7806    5.5738    3.6695 H       1  UNL1        0.2921
     53 H          -4.4087    5.8732    1.6517 H       1  UNL1        0.0691
     54 H          -3.0450    6.0509   -0.3523 H       1  UNL1        0.2922
     55 H          -3.5121   -1.6477    2.3741 H       1  UNL1        0.0626
     56 H          -3.6684   -4.1056    2.3669 H       1  UNL1        0.0654
     57 H          -4.1294   -6.1777   -0.6070 H       1  UNL1        0.2921
     58 H          -4.1701   -4.0740   -1.9044 H       1  UNL1        0.0654
     59 H          -4.0442   -1.6219   -1.9111 H       1  UNL1        0.0626
     60 H          -1.3950   -1.4573   -3.3844 H       1  UNL1        0.0683
     61 H          -0.2131   -3.2812   -3.1101 H       1  UNL1        0.2102
     62 H           1.0163   -1.4135   -4.2028 H       1  UNL1        0.0648
     63 H          -0.2572    0.3018   -4.7064 H       1  UNL1        0.2100
     64 H           2.4417    0.3175   -2.7210 H       1  UNL1        0.0647
     65 H           3.2170   -1.6741   -3.1482 H       1  UNL1        0.2100
     66 H           5.1652   -1.7458   -0.1473 H       1  UNL1        0.0671
     67 H           4.6162   -2.5361    2.5635 H       1  UNL1        0.2101
     68 H           6.8613   -1.3252    2.0256 H       1  UNL1        0.0648
     69 H           7.3307   -0.5065    0.0320 H       1  UNL1        0.2100
@<TRIPOS>BOND
     1     1     2    1
     2     2     3    1
     3     1     4    1
     4     4     5    1
     5     5     6    1
     6     6     7    1
     7     7     8    1
     8     8     9    1
     9     9    10    1
    10    10    11    1
    11    11    12    1
    12    12    13   ar
    13    13    14   ar
    14    14    15   ar
    15    15    16   ar
    16    16    17   ar
    17    17    18    1
    18    17    19   ar
    19    19    20   ar
    20    20    21    1
    21    20    22   ar
    22    22    23   ar
    23    23    24    2
    24    13    25    1
    25    25    26   ar
    26    26    27   ar
    27    27    28   ar
    28    28    29    1
    29    28    30   ar
    30    30    31   ar
    31    10    32    1
    32    32    33    1
    33    32    34    1
    34    34    35    1
    35    34    36    1
    36    36    37    1
    37     5    38    1
    38    38    39    1
    39    38    40    1
    40    40    41    1
    41    40     1    1
    42    36     8    1
    43    23    12   ar
    44    31    25   ar
    45    22    15   ar
    46     1    42    1
    47     2    43    1
    48     2    44    1
    49     3    45    1
    50     5    46    1
    51     7    47    1
    52     7    48    1
    53     8    49    1
    54    10    50    1
    55    16    51    1
    56    18    52    1
    57    19    53    1
    58    21    54    1
    59    26    55    1
    60    27    56    1
    61    29    57    1
    62    30    58    1
    63    31    59    1
    64    32    60    1
    65    33    61    1
    66    34    62    1
    67    35    63    1
    68    36    64    1
    69    37    65    1
    70    38    66    1
    71    39    67    1
    72    40    68    1
    73    41    69    1
