@<TRIPOS>MOLECULE
Kaempferol 3-O-acetyl-glucoside
 57 60 0 0 0
SMALL
GASTEIGER

@<TRIPOS>ATOM
      1 C           2.4356   -1.8816   -0.0981 C.3     1  UNL1        0.1250
      2 C           2.5425   -2.2039    1.4015 C.3     1  UNL1        0.1212
      3 O           2.6274   -1.0150    2.1890 O.3     1  UNL1       -0.4621
      4 C           1.5204   -0.2413    2.5554 C.2     1  UNL1        0.3040
      5 C           1.7413    1.0596    3.2485 C.3     1  UNL1        0.0332
      6 O           0.3471   -0.6192    2.2885 O.2     1  UNL1       -0.2512
      7 O           1.2467   -1.1547   -0.3297 O.3     1  UNL1       -0.3302
      8 C           0.9225   -1.1296   -1.7119 C.3     1  UNL1        0.2312
      9 O          -0.1335   -0.1910   -1.9070 O.3     1  UNL1       -0.4532
     10 C          -1.3241   -0.2200   -1.1698 C.ar    1  UNL1        0.2138
     11 C          -1.6649    0.8673   -0.3479 C.ar    1  UNL1        0.1809
     12 O          -2.7725    0.8196    0.3825 O.2     1  UNL1       -0.4507
     13 C          -3.6022   -0.2167    0.3858 C.ar    1  UNL1        0.1465
     14 C          -4.7550   -0.1463    1.1716 C.ar    1  UNL1        0.0231
     15 C          -5.6651   -1.2041    1.1874 C.ar    1  UNL1        0.1239
     16 O          -6.8271   -1.1300    1.9525 O.3     1  UNL1       -0.5065
     17 C          -5.4071   -2.3510    0.4378 C.ar    1  UNL1        0.0223
     18 C          -4.2406   -2.4671   -0.3282 C.ar    1  UNL1        0.1348
     19 O          -4.0293   -3.6954   -0.9615 O.3     1  UNL1       -0.5058
     20 C          -3.3329   -1.3682   -0.3991 C.ar    1  UNL1        0.1092
     21 C          -2.1853   -1.3267   -1.2263 C.ar    1  UNL1        0.2382
     22 O          -1.9389   -2.2429   -2.0528 O.2     1  UNL1       -0.2830
     23 C          -0.8037    2.0664   -0.2376 C.ar    1  UNL1        0.0213
     24 C          -0.5853    2.6438    1.0237 C.ar    1  UNL1       -0.0475
     25 C           0.2334    3.7691    1.1551 C.ar    1  UNL1       -0.0195
     26 C           0.8311    4.3404    0.0245 C.ar    1  UNL1        0.1169
     27 O           1.6543    5.4577    0.1440 O.3     1  UNL1       -0.5068
     28 C           0.5965    3.7872   -1.2376 C.ar    1  UNL1       -0.0195
     29 C          -0.2221    2.6618   -1.3720 C.ar    1  UNL1       -0.0475
     30 C           2.1250   -0.7146   -2.6114 C.3     1  UNL1        0.1454
     31 O           2.5897   -1.8275   -3.3330 O.3     1  UNL1       -0.3829
     32 C           3.2882   -0.1422   -1.7772 C.3     1  UNL1        0.1152
     33 O           2.9827    1.1555   -1.3215 O.3     1  UNL1       -0.3864
     34 C           3.6691   -1.0802   -0.6030 C.3     1  UNL1        0.1130
     35 O           4.6664   -1.9728   -1.0317 O.3     1  UNL1       -0.3864
     36 H           2.3887   -2.8635   -0.6281 H       1  UNL1        0.0658
     37 H           3.4567   -2.8088    1.5788 H       1  UNL1        0.0724
     38 H           1.6742   -2.8192    1.7243 H       1  UNL1        0.0724
     39 H           0.7946    1.4302    3.6958 H       1  UNL1        0.0342
     40 H           2.1170    1.8054    2.5177 H       1  UNL1        0.0342
     41 H           2.4928    0.9294    4.0547 H       1  UNL1        0.0342
     42 H           0.5591   -2.1358   -2.0168 H       1  UNL1        0.1084
     43 H          -4.9496    0.7416    1.7607 H       1  UNL1        0.0691
     44 H          -7.0429   -0.3122    2.5106 H       1  UNL1        0.2921
     45 H          -6.1061   -3.1776    0.4757 H       1  UNL1        0.0691
     46 H          -3.1354   -4.0238   -1.2942 H       1  UNL1        0.2922
     47 H          -1.0331    2.2112    1.9099 H       1  UNL1        0.0626
     48 H           0.4055    4.1931    2.1362 H       1  UNL1        0.0654
     49 H           1.8434    5.8819    1.0447 H       1  UNL1        0.2921
     50 H           1.0454    4.2325   -2.1163 H       1  UNL1        0.0654
     51 H          -0.4112    2.2697   -2.3629 H       1  UNL1        0.0626
     52 H           1.8070    0.0734   -3.3352 H       1  UNL1        0.0683
     53 H           1.9336   -1.9923   -4.0600 H       1  UNL1        0.2102
     54 H           4.1704   -0.0378   -2.4473 H       1  UNL1        0.0648
     55 H           2.2722    1.0875   -0.6332 H       1  UNL1        0.2100
     56 H           4.0844   -0.4394    0.2103 H       1  UNL1        0.0647
     57 H           5.1027   -2.3321   -0.2157 H       1  UNL1        0.2100
@<TRIPOS>BOND
     1     1     2    1
     2     2     3    1
     3     3     4    1
     4     4     5    1
     5     4     6    2
     6     1     7    1
     7     7     8    1
     8     8     9    1
     9     9    10    1
    10    10    11   ar
    11    11    12   ar
    12    12    13   ar
    13    13    14   ar
    14    14    15   ar
    15    15    16    1
    16    15    17   ar
    17    17    18   ar
    18    18    19    1
    19    18    20   ar
    20    20    21   ar
    21    21    22    2
    22    11    23    1
    23    23    24   ar
    24    24    25   ar
    25    25    26   ar
    26    26    27    1
    27    26    28   ar
    28    28    29   ar
    29     8    30    1
    30    30    31    1
    31    30    32    1
    32    32    33    1
    33    32    34    1
    34    34    35    1
    35    34     1    1
    36    21    10   ar
    37    29    23   ar
    38    20    13   ar
    39     1    36    1
    40     2    37    1
    41     2    38    1
    42     5    39    1
    43     5    40    1
    44     5    41    1
    45     8    42    1
    46    14    43    1
    47    16    44    1
    48    17    45    1
    49    19    46    1
    50    24    47    1
    51    25    48    1
    52    27    49    1
    53    28    50    1
    54    29    51    1
    55    30    52    1
    56    31    53    1
    57    32    54    1
    58    33    55    1
    59    34    56    1
    60    35    57    1
