@<TRIPOS>MOLECULE
Quercetin 3-O-xylosyl-rutinoside
 90 95 0 0 0
SMALL
GASTEIGER

@<TRIPOS>ATOM
      1 C           5.6981   -3.7429   -0.5404 C.3     1  UNL1       -0.0361
      2 C           4.1757   -3.8339   -0.6947 C.3     1  UNL1        0.0873
      3 O           3.6289   -2.5574   -1.0180 O.3     1  UNL1       -0.3431
      4 C           3.2731   -1.8079    0.1312 C.3     1  UNL1        0.1879
      5 O           2.9364   -0.5007   -0.3012 O.3     1  UNL1       -0.3461
      6 C           3.1287    0.4721    0.7129 C.3     1  UNL1        0.0796
      7 C           1.9226    1.4149    0.7259 C.3     1  UNL1        0.1144
      8 O           0.7619    0.6538    0.9834 O.3     1  UNL1       -0.3313
      9 C          -0.4013    1.3866    0.6318 C.3     1  UNL1        0.2315
     10 O          -1.5530    0.6498    1.0507 O.3     1  UNL1       -0.4532
     11 C          -1.6711   -0.7415    0.9030 C.ar    1  UNL1        0.2138
     12 C          -1.5426   -1.3847   -0.3437 C.ar    1  UNL1        0.1810
     13 O          -1.5288   -2.7100   -0.4044 O.2     1  UNL1       -0.4507
     14 C          -1.6872   -3.4907    0.6569 C.ar    1  UNL1        0.1465
     15 C          -1.6199   -4.8748    0.4829 C.ar    1  UNL1        0.0231
     16 C          -1.7640   -5.7311    1.5714 C.ar    1  UNL1        0.1239
     17 O          -1.6667   -7.1076    1.3803 O.3     1  UNL1       -0.5065
     18 C          -2.0106   -5.2035    2.8414 C.ar    1  UNL1        0.0223
     19 C          -2.1230   -3.8218    3.0401 C.ar    1  UNL1        0.1348
     20 O          -2.4623   -3.4023    4.3297 O.3     1  UNL1       -0.5058
     21 C          -1.9166   -2.9341    1.9421 C.ar    1  UNL1        0.1092
     22 C          -1.8737   -1.5229    2.0463 C.ar    1  UNL1        0.2382
     23 O          -1.9565   -0.9404    3.1591 O.2     1  UNL1       -0.2830
     24 C          -1.4215   -0.6387   -1.6063 C.ar    1  UNL1        0.0247
     25 C          -2.3936    0.3042   -1.9766 C.ar    1  UNL1       -0.0057
     26 C          -2.2876    0.9902   -3.1918 C.ar    1  UNL1        0.1589
     27 O          -3.2798    1.9044   -3.5429 O.3     1  UNL1       -0.5033
     28 C          -1.1946    0.7440   -4.0405 C.ar    1  UNL1        0.1583
     29 O          -1.0751    1.4358   -5.2447 O.3     1  UNL1       -0.5033
     30 C          -0.2281   -0.2028   -3.6727 C.ar    1  UNL1       -0.0159
     31 C          -0.3473   -0.8996   -2.4680 C.ar    1  UNL1       -0.0473
     32 C          -0.4409    2.8076    1.2747 C.3     1  UNL1        0.1519
     33 O          -0.2627    3.7846    0.2579 O.3     1  UNL1       -0.3366
     34 C          -1.4876    4.3923   -0.1075 C.3     1  UNL1        0.1882
     35 O          -2.3627    3.4249   -0.6620 O.3     1  UNL1       -0.3461
     36 C          -3.6747    3.9541   -0.7628 C.3     1  UNL1        0.0792
     37 C          -3.7238    5.3390   -1.4595 C.3     1  UNL1        0.1069
     38 O          -4.0166    6.3285   -0.5056 O.3     1  UNL1       -0.3869
     39 C          -2.3773    5.6546   -2.1468 C.3     1  UNL1        0.1137
     40 O          -2.1853    4.7840   -3.2335 O.3     1  UNL1       -0.3864
     41 C          -1.1984    5.4930   -1.1545 C.3     1  UNL1        0.1341
     42 O          -0.9541    6.7058   -0.4880 O.3     1  UNL1       -0.3841
     43 C           0.6791    2.9938    2.3263 C.3     1  UNL1        0.1155
     44 O           0.3375    2.3476    3.5302 O.3     1  UNL1       -0.3863
     45 C           2.0673    2.5124    1.8116 C.3     1  UNL1        0.1120
     46 O           2.8312    3.5894    1.3261 O.3     1  UNL1       -0.3865
     47 C           2.0489   -2.4596    0.8315 C.3     1  UNL1        0.1341
     48 O           2.0542   -2.1055    2.1922 O.3     1  UNL1       -0.3841
     49 C           2.0622   -4.0008    0.6663 C.3     1  UNL1        0.1140
     50 O           1.3747   -4.6453    1.7121 O.3     1  UNL1       -0.3864
     51 C           3.5024   -4.5197    0.5295 C.3     1  UNL1        0.1095
     52 O           3.4823   -5.9139    0.3594 O.3     1  UNL1       -0.3866
     53 H           6.1349   -4.7593   -0.4441 H       1  UNL1        0.0255
     54 H           5.9752   -3.1509    0.3565 H       1  UNL1        0.0255
     55 H           6.1378   -3.2570   -1.4370 H       1  UNL1        0.0255
     56 H           3.9860   -4.4801   -1.5802 H       1  UNL1        0.0621
     57 H           4.1489   -1.7825    0.8260 H       1  UNL1        0.0937
     58 H           3.2561    0.0458    1.7346 H       1  UNL1        0.0587
     59 H           4.0455    1.0532    0.4750 H       1  UNL1        0.0587
     60 H           1.8685    1.8822   -0.2875 H       1  UNL1        0.0647
     61 H          -0.4379    1.4919   -0.4728 H       1  UNL1        0.1084
     62 H          -1.4359   -5.2860   -0.5022 H       1  UNL1        0.0691
     63 H          -1.7671   -7.7580    2.1508 H       1  UNL1        0.2921
     64 H          -2.1460   -5.8744    3.6808 H       1  UNL1        0.0691
     65 H          -2.8457   -2.4976    4.5578 H       1  UNL1        0.2922
     66 H          -3.2382    0.4993   -1.3266 H       1  UNL1        0.0662
     67 H          -3.2559    2.4155   -4.4169 H       1  UNL1        0.2923
     68 H          -0.2967    1.2758   -5.8735 H       1  UNL1        0.2923
     69 H           0.6141   -0.4025   -4.3228 H       1  UNL1        0.0655
     70 H           0.4065   -1.6300   -2.1991 H       1  UNL1        0.0626
     71 H          -1.4079    2.9346    1.8220 H       1  UNL1        0.0687
     72 H          -1.9420    4.8709    0.7971 H       1  UNL1        0.0937
     73 H          -4.1436    3.9959    0.2459 H       1  UNL1        0.0587
     74 H          -4.2817    3.2373   -1.3549 H       1  UNL1        0.0587
     75 H          -4.5339    5.3223   -2.2264 H       1  UNL1        0.0643
     76 H          -4.3054    7.1354   -1.0070 H       1  UNL1        0.2100
     77 H          -2.3931    6.7036   -2.5264 H       1  UNL1        0.0647
     78 H          -2.7836    5.0951   -3.9624 H       1  UNL1        0.2100
     79 H          -0.2878    5.2052   -1.7338 H       1  UNL1        0.0671
     80 H          -0.4759    7.2957   -1.1279 H       1  UNL1        0.2101
     81 H           0.7465    4.0787    2.5634 H       1  UNL1        0.0648
     82 H           0.2963    1.3718    3.3565 H       1  UNL1        0.2100
     83 H           2.6175    2.0965    2.6847 H       1  UNL1        0.0647
     84 H           2.3238    4.0112    0.5848 H       1  UNL1        0.2100
     85 H           1.1239   -2.0735    0.3445 H       1  UNL1        0.0671
     86 H           1.1087   -2.0977    2.4955 H       1  UNL1        0.2101
     87 H           1.5257   -4.2456   -0.2784 H       1  UNL1        0.0648
     88 H           1.9365   -4.5926    2.5289 H       1  UNL1        0.2100
     89 H           4.0535   -4.2623    1.4660 H       1  UNL1        0.0646
     90 H           4.3958   -6.2408    0.5684 H       1  UNL1        0.2100
@<TRIPOS>BOND
     1     1     2    1
     2     2     3    1
     3     3     4    1
     4     4     5    1
     5     5     6    1
     6     6     7    1
     7     7     8    1
     8     8     9    1
     9     9    10    1
    10    10    11    1
    11    11    12   ar
    12    12    13   ar
    13    13    14   ar
    14    14    15   ar
    15    15    16   ar
    16    16    17    1
    17    16    18   ar
    18    18    19   ar
    19    19    20    1
    20    19    21   ar
    21    21    22   ar
    22    22    23    2
    23    12    24    1
    24    24    25   ar
    25    25    26   ar
    26    26    27    1
    27    26    28   ar
    28    28    29    1
    29    28    30   ar
    30    30    31   ar
    31     9    32    1
    32    32    33    1
    33    33    34    1
    34    34    35    1
    35    35    36    1
    36    36    37    1
    37    37    38    1
    38    37    39    1
    39    39    40    1
    40    39    41    1
    41    41    42    1
    42    32    43    1
    43    43    44    1
    44    43    45    1
    45    45    46    1
    46     4    47    1
    47    47    48    1
    48    47    49    1
    49    49    50    1
    50    49    51    1
    51    51    52    1
    52    51     2    1
    53    45     7    1
    54    22    11   ar
    55    31    24   ar
    56    41    34    1
    57    21    14   ar
    58     1    53    1
    59     1    54    1
    60     1    55    1
    61     2    56    1
    62     4    57    1
    63     6    58    1
    64     6    59    1
    65     7    60    1
    66     9    61    1
    67    15    62    1
    68    17    63    1
    69    18    64    1
    70    20    65    1
    71    25    66    1
    72    27    67    1
    73    29    68    1
    74    30    69    1
    75    31    70    1
    76    32    71    1
    77    34    72    1
    78    36    73    1
    79    36    74    1
    80    37    75    1
    81    38    76    1
    82    39    77    1
    83    40    78    1
    84    41    79    1
    85    42    80    1
    86    43    81    1
    87    44    82    1
    88    45    83    1
    89    46    84    1
    90    47    85    1
    91    48    86    1
    92    49    87    1
    93    50    88    1
    94    51    89    1
    95    52    90    1
