@<TRIPOS>MOLECULE
Kaempferol 3-O-xylosyl-rutinoside
 92 97 0 0 0
SMALL
GASTEIGER

@<TRIPOS>ATOM
      1 C           7.1072    0.5483   -0.9249 C.3     1  UNL1        0.0873
      2 C           7.3898    1.2203    0.4234 C.3     1  UNL1       -0.0361
      3 O           5.7553    0.1028   -0.9836 O.3     1  UNL1       -0.3431
      4 C           5.6090   -1.2215   -0.4953 C.3     1  UNL1        0.1883
      5 O           4.2354   -1.5361   -0.3670 O.3     1  UNL1       -0.3401
      6 C           3.6049   -0.7290    0.6186 C.3     1  UNL1        0.1205
      7 C           2.7197   -1.6227    1.5047 C.3     1  UNL1        0.1098
      8 O           3.4711   -2.6476    2.1084 O.3     1  UNL1       -0.3866
      9 C           1.9966   -0.7517    2.5767 C.3     1  UNL1        0.0873
     10 C           0.6795   -1.3863    3.0353 C.3     1  UNL1       -0.0361
     11 O           1.7852    0.5990    2.1733 O.3     1  UNL1       -0.3431
     12 C           1.4887    0.7026    0.7901 C.3     1  UNL1        0.1879
     13 O           1.0780    2.0253    0.4980 O.3     1  UNL1       -0.3461
     14 C          -0.2569    2.2500    0.9183 C.3     1  UNL1        0.0796
     15 C          -1.2374    2.0387   -0.2462 C.3     1  UNL1        0.1144
     16 O          -2.5554    2.1642    0.2636 O.3     1  UNL1       -0.3313
     17 C          -3.4971    1.9942   -0.7786 C.3     1  UNL1        0.2311
     18 O          -4.7920    1.8170   -0.2077 O.3     1  UNL1       -0.4532
     19 C          -5.1059    0.7047    0.5816 C.ar    1  UNL1        0.2138
     20 C          -5.2400   -0.5820    0.0261 C.ar    1  UNL1        0.1809
     21 O          -5.4764   -1.6181    0.8218 O.2     1  UNL1       -0.4507
     22 C          -5.6130   -1.5138    2.1385 C.ar    1  UNL1        0.1465
     23 C          -5.8881   -2.6694    2.8733 C.ar    1  UNL1        0.0231
     24 C          -6.0651   -2.6043    4.2528 C.ar    1  UNL1        0.1239
     25 O          -6.3588   -3.7661    4.9634 O.3     1  UNL1       -0.5065
     26 C          -5.9398   -1.3788    4.9114 C.ar    1  UNL1        0.0223
     27 C          -5.6276   -0.2088    4.2080 C.ar    1  UNL1        0.1348
     28 O          -5.4377    0.9450    4.9748 O.3     1  UNL1       -0.5058
     29 C          -5.4971   -0.2557    2.7868 C.ar    1  UNL1        0.1092
     30 C          -5.2767    0.8720    1.9599 C.ar    1  UNL1        0.2382
     31 O          -5.2396    2.0398    2.4276 O.2     1  UNL1       -0.2830
     32 C          -5.1381   -0.8304   -1.4288 C.ar    1  UNL1        0.0213
     33 C          -5.7661    0.0167   -2.3600 C.ar    1  UNL1       -0.0475
     34 C          -5.6522   -0.2331   -3.7306 C.ar    1  UNL1       -0.0195
     35 C          -4.9264   -1.3374   -4.1869 C.ar    1  UNL1        0.1169
     36 O          -4.8190   -1.5723   -5.5557 O.3     1  UNL1       -0.5068
     37 C          -4.3178   -2.1982   -3.2641 C.ar    1  UNL1       -0.0195
     38 C          -4.4290   -1.9501   -1.8927 C.ar    1  UNL1       -0.0475
     39 C          -3.5102    3.2347   -1.6983 C.3     1  UNL1        0.1454
     40 O          -3.7921    2.8288   -3.0139 O.3     1  UNL1       -0.3829
     41 C          -2.1626    3.9983   -1.6455 C.3     1  UNL1        0.1152
     42 O          -2.2167    4.9371   -0.5998 O.3     1  UNL1       -0.3864
     43 C          -0.9647    3.0444   -1.4159 C.3     1  UNL1        0.1120
     44 O          -0.6366    2.3617   -2.6019 O.3     1  UNL1       -0.3865
     45 C           2.7455    0.3800   -0.0487 C.3     1  UNL1        0.1345
     46 O           2.3364   -0.0079   -1.3374 O.3     1  UNL1       -0.3841
     47 C           6.2558   -2.2239   -1.4803 C.3     1  UNL1        0.1341
     48 O           6.6128   -3.3956   -0.7904 O.3     1  UNL1       -0.3841
     49 C           7.5006   -1.6088   -2.1688 C.3     1  UNL1        0.1140
     50 O           8.4391   -2.6019   -2.4957 O.3     1  UNL1       -0.3864
     51 C           8.1519   -0.5585   -1.2606 C.3     1  UNL1        0.1095
     52 O           9.2622    0.0009   -1.9146 O.3     1  UNL1       -0.3866
     53 H           7.2027    1.3402   -1.7002 H       1  UNL1        0.0621
     54 H           6.6280    2.0047    0.6180 H       1  UNL1        0.0255
     55 H           7.3586    0.4830    1.2523 H       1  UNL1        0.0255
     56 H           8.3913    1.6998    0.4105 H       1  UNL1        0.0255
     57 H           6.1079   -1.3399    0.4977 H       1  UNL1        0.0938
     58 H           4.3317   -0.2234    1.3033 H       1  UNL1        0.0651
     59 H           1.9628   -2.1068    0.8472 H       1  UNL1        0.0646
     60 H           4.2065   -2.2225    2.6227 H       1  UNL1        0.2100
     61 H           2.6530   -0.7037    3.4729 H       1  UNL1        0.0621
     62 H           0.2138   -0.7572    3.8233 H       1  UNL1        0.0255
     63 H          -0.0341   -1.4814    2.1905 H       1  UNL1        0.0255
     64 H           0.8703   -2.3961    3.4570 H       1  UNL1        0.0255
     65 H           0.6877   -0.0229    0.5046 H       1  UNL1        0.0937
     66 H          -0.5564    1.6154    1.7868 H       1  UNL1        0.0587
     67 H          -0.3381    3.3013    1.2688 H       1  UNL1        0.0587
     68 H          -1.0885    0.9939   -0.6034 H       1  UNL1        0.0647
     69 H          -3.2530    1.0876   -1.3800 H       1  UNL1        0.1084
     70 H          -5.9792   -3.6221    2.3658 H       1  UNL1        0.0691
     71 H          -6.4915   -3.7539    5.9680 H       1  UNL1        0.2921
     72 H          -6.0565   -1.3373    5.9874 H       1  UNL1        0.0691
     73 H          -4.9618    1.7767    4.6614 H       1  UNL1        0.2922
     74 H          -6.3516    0.8649   -2.0289 H       1  UNL1        0.0626
     75 H          -6.1326    0.4299   -4.4389 H       1  UNL1        0.0654
     76 H          -4.3007   -2.3642   -5.9178 H       1  UNL1        0.2921
     77 H          -3.7578   -3.0584   -3.6081 H       1  UNL1        0.0654
     78 H          -3.9468   -2.6224   -1.1934 H       1  UNL1        0.0626
     79 H          -4.3173    3.9247   -1.3523 H       1  UNL1        0.0683
     80 H          -4.1044    3.6335   -3.5045 H       1  UNL1        0.2102
     81 H          -2.0166    4.5417   -2.6093 H       1  UNL1        0.0648
     82 H          -1.5069    5.6091   -0.7753 H       1  UNL1        0.2100
     83 H          -0.0846    3.6803   -1.1741 H       1  UNL1        0.0647
     84 H          -1.3934    1.7639   -2.8326 H       1  UNL1        0.2100
     85 H           3.3698    1.3039   -0.1134 H       1  UNL1        0.0671
     86 H           3.0728    0.2267   -1.9606 H       1  UNL1        0.2101
     87 H           5.5258   -2.4780   -2.2851 H       1  UNL1        0.0671
     88 H           5.7694   -3.8840   -0.6001 H       1  UNL1        0.2101
     89 H           7.1751   -1.0914   -3.1033 H       1  UNL1        0.0648
     90 H           8.0567   -3.1148   -3.2551 H       1  UNL1        0.2100
     91 H           8.4867   -1.0735   -0.3280 H       1  UNL1        0.0646
     92 H           9.8128    0.4421   -1.2165 H       1  UNL1        0.2100
@<TRIPOS>BOND
     1     1     2    1
     2     1     3    1
     3     3     4    1
     4     4     5    1
     5     5     6    1
     6     6     7    1
     7     7     8    1
     8     7     9    1
     9     9    10    1
    10     9    11    1
    11    11    12    1
    12    12    13    1
    13    13    14    1
    14    14    15    1
    15    15    16    1
    16    16    17    1
    17    17    18    1
    18    18    19    1
    19    19    20   ar
    20    20    21   ar
    21    21    22   ar
    22    22    23   ar
    23    23    24   ar
    24    24    25    1
    25    24    26   ar
    26    26    27   ar
    27    27    28    1
    28    27    29   ar
    29    29    30   ar
    30    30    31    2
    31    20    32    1
    32    32    33   ar
    33    33    34   ar
    34    34    35   ar
    35    35    36    1
    36    35    37   ar
    37    37    38   ar
    38    17    39    1
    39    39    40    1
    40    39    41    1
    41    41    42    1
    42    41    43    1
    43    43    44    1
    44    12    45    1
    45    45    46    1
    46     4    47    1
    47    47    48    1
    48    47    49    1
    49    49    50    1
    50    49    51    1
    51    51    52    1
    52    51     1    1
    53    45     6    1
    54    43    15    1
    55    30    19   ar
    56    38    32   ar
    57    29    22   ar
    58     1    53    1
    59     2    54    1
    60     2    55    1
    61     2    56    1
    62     4    57    1
    63     6    58    1
    64     7    59    1
    65     8    60    1
    66     9    61    1
    67    10    62    1
    68    10    63    1
    69    10    64    1
    70    12    65    1
    71    14    66    1
    72    14    67    1
    73    15    68    1
    74    17    69    1
    75    23    70    1
    76    25    71    1
    77    26    72    1
    78    28    73    1
    79    33    74    1
    80    34    75    1
    81    36    76    1
    82    37    77    1
    83    38    78    1
    84    39    79    1
    85    40    80    1
    86    41    81    1
    87    42    82    1
    88    43    83    1
    89    44    84    1
    90    45    85    1
    91    46    86    1
    92    47    87    1
    93    48    88    1
    94    49    89    1
    95    50    90    1
    96    51    91    1
    97    52    92    1
