@<TRIPOS>MOLECULE
Kaempferol 7-O-glucoside
 51 54 0 0 0
SMALL
GASTEIGER

@<TRIPOS>ATOM
      1 O          -4.2597   -2.7170   -1.0408 O.3     1  UNL1       -0.3924
      2 C          -5.0824   -1.6704   -1.4815 C.3     1  UNL1        0.0731
      3 C          -4.7511   -0.3745   -0.7272 C.3     1  UNL1        0.1140
      4 O          -3.3801   -0.0765   -0.9296 O.3     1  UNL1       -0.3313
      5 C          -2.9824    1.0140   -0.1165 C.3     1  UNL1        0.2308
      6 O          -1.5726    1.1942   -0.2431 O.3     1  UNL1       -0.4606
      7 C          -0.6046    0.2652    0.1702 C.ar    1  UNL1        0.1310
      8 C          -0.9393   -0.9508    0.7935 C.ar    1  UNL1        0.0226
      9 C           0.0594   -1.8538    1.1869 C.ar    1  UNL1        0.1347
     10 O          -0.3069   -3.0532    1.7992 O.3     1  UNL1       -0.5058
     11 C           1.4195   -1.5401    0.9596 C.ar    1  UNL1        0.1049
     12 C           2.4794   -2.3978    1.3180 C.ar    1  UNL1        0.1890
     13 O           2.2611   -3.5128    1.8655 O.2     1  UNL1       -0.2875
     14 C           3.7980   -2.0136    1.0559 C.ar    1  UNL1       -0.0152
     15 O           4.8431   -2.8803    1.3641 O.co2   1  UNL1       -0.8689
     16 C           4.0421   -0.7653    0.4531 C.ar    1  UNL1        0.1316
     17 O           3.0174    0.0125    0.1144 O.2     1  UNL1       -0.4550
     18 C           1.7486   -0.3139    0.3371 C.ar    1  UNL1        0.1462
     19 C           0.7400    0.5720   -0.0505 C.ar    1  UNL1        0.0235
     20 C           5.4120   -0.2852    0.1604 C.ar    1  UNL1        0.0170
     21 C           5.6644    0.3910   -1.0451 C.ar    1  UNL1       -0.0477
     22 C           6.9453    0.8722   -1.3327 C.ar    1  UNL1       -0.0195
     23 C           7.9851    0.6981   -0.4148 C.ar    1  UNL1        0.1169
     24 O           9.2563    1.1822   -0.7148 O.3     1  UNL1       -0.5068
     25 C           7.7376    0.0434    0.7987 C.ar    1  UNL1       -0.0195
     26 C           6.4580   -0.4399    1.0887 C.ar    1  UNL1       -0.0477
     27 C          -3.6944    2.2996   -0.5753 C.3     1  UNL1        0.1454
     28 O          -3.3350    3.3744    0.2542 O.3     1  UNL1       -0.3829
     29 C          -5.2187    2.0936   -0.5053 C.3     1  UNL1        0.1152
     30 O          -5.8976    3.2042   -1.0376 O.3     1  UNL1       -0.3864
     31 C          -5.6297    0.7938   -1.2290 C.3     1  UNL1        0.1120
     32 O          -6.9819    0.5148   -0.9698 O.3     1  UNL1       -0.3865
     33 H          -4.6004   -2.9907   -0.1493 H       1  UNL1        0.2095
     34 H          -6.1528   -1.9439   -1.3394 H       1  UNL1        0.0584
     35 H          -4.9107   -1.5231   -2.5694 H       1  UNL1        0.0584
     36 H          -4.9578   -0.5585    0.3541 H       1  UNL1        0.0647
     37 H          -3.2170    0.8259    0.9581 H       1  UNL1        0.1084
     38 H          -1.9730   -1.2082    0.9787 H       1  UNL1        0.0691
     39 H          -1.2774   -3.2920    1.9673 H       1  UNL1        0.2922
     40 H           1.0032    1.5081   -0.5279 H       1  UNL1        0.0691
     41 H           4.8721    0.5360   -1.7695 H       1  UNL1        0.0626
     42 H           7.1294    1.3827   -2.2695 H       1  UNL1        0.0654
     43 H          10.0303    1.0730   -0.0698 H       1  UNL1        0.2921
     44 H           8.5336   -0.0836    1.5215 H       1  UNL1        0.0654
     45 H           6.2831   -0.9098    2.0479 H       1  UNL1        0.0626
     46 H          -3.4061    2.5151   -1.6320 H       1  UNL1        0.0683
     47 H          -2.4513    3.6991   -0.0610 H       1  UNL1        0.2102
     48 H          -5.5091    2.0013    0.5656 H       1  UNL1        0.0648
     49 H          -5.6462    3.2813   -1.9952 H       1  UNL1        0.2100
     50 H          -5.4650    0.9121   -2.3269 H       1  UNL1        0.0647
     51 H          -7.5156    1.0951   -1.5730 H       1  UNL1        0.2100
@<TRIPOS>UNITY_ATOM_ATTR
15 1
charge -1
@<TRIPOS>BOND
     1     1     2    1
     2     2     3    1
     3     3     4    1
     4     4     5    1
     5     5     6    1
     6     6     7    1
     7     7     8   ar
     8     8     9   ar
     9     9    10    1
    10     9    11   ar
    11    11    12   ar
    12    12    13    2
    13    12    14   ar
    14    14    15    1
    15    14    16   ar
    16    16    17   ar
    17    17    18   ar
    18    18    19   ar
    19    16    20    1
    20    20    21   ar
    21    21    22   ar
    22    22    23   ar
    23    23    24    1
    24    23    25   ar
    25    25    26   ar
    26     5    27    1
    27    27    28    1
    28    27    29    1
    29    29    30    1
    30    29    31    1
    31    31    32    1
    32    31     3    1
    33    19     7   ar
    34    26    20   ar
    35    18    11   ar
    36     1    33    1
    37     2    34    1
    38     2    35    1
    39     3    36    1
    40     5    37    1
    41     8    38    1
    42    10    39    1
    43    19    40    1
    44    21    41    1
    45    22    42    1
    46    24    43    1
    47    25    44    1
    48    26    45    1
    49    27    46    1
    50    28    47    1
    51    29    48    1
    52    30    49    1
    53    31    50    1
    54    32    51    1
