@<TRIPOS>MOLECULE
Petunidin 3-O-galactoside
 57 60 0 0 0
SMALL
GASTEIGER

@<TRIPOS>ATOM
      1 C          -5.2273   -2.4894   -2.5737 C.3     1  UNL1        0.0790
      2 O          -4.2077   -3.3644   -2.1023 O.3     1  UNL1       -0.4913
      3 C          -3.1200   -2.9667   -1.3081 C.ar    1  UNL1        0.1658
      4 C          -2.1815   -3.9362   -0.9087 C.ar    1  UNL1        0.2008
      5 O          -2.3209   -5.2698   -1.2956 O.3     1  UNL1       -0.5009
      6 C          -1.0913   -3.5722   -0.1085 C.ar    1  UNL1        0.1628
      7 O          -0.1744   -4.5431    0.2911 O.3     1  UNL1       -0.5032
      8 C          -0.9275   -2.2408    0.2902 C.ar    1  UNL1       -0.0000
      9 C          -1.8404   -1.2569   -0.1204 C.ar    1  UNL1        0.0899
     10 C          -2.9441   -1.6290   -0.9023 C.ar    1  UNL1        0.0002
     11 C          -1.6872    0.1526    0.3046 C.ar    1  UNL1        0.4047
     12 O          -2.7683    0.8030    0.7238 O.2     1  UNL1       -0.1997
     13 C          -2.7441    2.0614    1.1465 C.ar    1  UNL1        0.3708
     14 C          -1.5314    2.7897    1.1725 C.ar    1  UNL1        0.1241
     15 C          -0.3740    2.1373    0.7166 C.ar    1  UNL1        0.0093
     16 C          -0.4424    0.8091    0.2625 C.ar    1  UNL1        0.2288
     17 O           0.6766    0.1304   -0.2557 O.3     1  UNL1       -0.4515
     18 C           2.0147    0.6286   -0.3114 C.3     1  UNL1        0.2312
     19 O           2.7453   -0.2039   -1.2029 O.3     1  UNL1       -0.3313
     20 C           4.1321    0.0550   -1.1099 C.3     1  UNL1        0.1140
     21 C           4.8332   -0.4720   -2.3730 C.3     1  UNL1        0.0731
     22 O           6.2203   -0.2797   -2.2934 O.3     1  UNL1       -0.3924
     23 C           4.6860   -0.5535    0.2111 C.3     1  UNL1        0.1120
     24 O           5.1715   -1.8660    0.0503 O.3     1  UNL1       -0.3865
     25 C           3.6324   -0.4823    1.3543 C.3     1  UNL1        0.1152
     26 O           2.9535   -1.7038    1.5316 O.3     1  UNL1       -0.3864
     27 C           2.6256    0.6701    1.1279 C.3     1  UNL1        0.1454
     28 O           3.2723    1.9044    1.3153 O.3     1  UNL1       -0.3829
     29 C          -1.5388    4.1300    1.6415 C.ar    1  UNL1        0.1366
     30 O          -0.3901    4.9237    1.7133 O.3     1  UNL1       -0.5057
     31 C          -2.7449    4.7057    2.0599 C.ar    1  UNL1        0.0225
     32 C          -3.9372    3.9798    2.0260 C.ar    1  UNL1        0.1293
     33 O          -5.1202    4.5817    2.4493 O.3     1  UNL1       -0.5063
     34 C          -3.9342    2.6584    1.5701 C.ar    1  UNL1        0.0847
     35 H          -4.7857   -1.7010   -3.2193 H       1  UNL1        0.0660
     36 H          -5.7615   -2.0282   -1.7163 H       1  UNL1        0.0660
     37 H          -5.9559   -3.0722   -3.1736 H       1  UNL1        0.0660
     38 H          -3.0900   -5.5882   -1.8727 H       1  UNL1        0.2924
     39 H           0.6260   -4.3116    0.8680 H       1  UNL1        0.2923
     40 H          -0.1004   -1.9816    0.9387 H       1  UNL1        0.0664
     41 H          -3.6537   -0.8691   -1.2020 H       1  UNL1        0.0664
     42 H           0.5724    2.6461    0.6984 H       1  UNL1        0.0667
     43 H           1.9867    1.6506   -0.7529 H       1  UNL1        0.1084
     44 H           4.3174    1.1569   -1.0989 H       1  UNL1        0.0647
     45 H           4.6260   -1.5538   -2.5102 H       1  UNL1        0.0584
     46 H           4.4270    0.0507   -3.2690 H       1  UNL1        0.0584
     47 H           6.3819    0.6888   -2.4406 H       1  UNL1        0.2095
     48 H           5.5526    0.0755    0.5136 H       1  UNL1        0.0647
     49 H           4.4456   -2.4146   -0.3453 H       1  UNL1        0.2100
     50 H           4.1756   -0.2846    2.3046 H       1  UNL1        0.0648
     51 H           2.4200   -1.8835    0.7154 H       1  UNL1        0.2100
     52 H           1.8091    0.5738    1.8819 H       1  UNL1        0.0683
     53 H           3.3687    2.0363    2.2948 H       1  UNL1        0.2102
     54 H           0.5366    4.6145    1.4590 H       1  UNL1        0.2922
     55 H          -2.7544    5.7283    2.4166 H       1  UNL1        0.0691
     56 H          -6.0022    4.0828    2.4378 H       1  UNL1        0.2921
     57 H          -4.8576    2.0928    1.5453 H       1  UNL1        0.0749
@<TRIPOS>UNITY_ATOM_ATTR
12 1
charge 1
@<TRIPOS>BOND
     1     1     2    1
     2     2     3    1
     3     3     4   ar
     4     4     5    1
     5     4     6   ar
     6     6     7    1
     7     6     8   ar
     8     8     9   ar
     9     9    10   ar
    10     9    11    1
    11    11    12   ar
    12    12    13   ar
    13    13    14   ar
    14    14    15   ar
    15    15    16   ar
    16    16    17    1
    17    17    18    1
    18    18    19    1
    19    19    20    1
    20    20    21    1
    21    21    22    1
    22    20    23    1
    23    23    24    1
    24    23    25    1
    25    25    26    1
    26    25    27    1
    27    27    28    1
    28    14    29   ar
    29    29    30    1
    30    29    31   ar
    31    31    32   ar
    32    32    33    1
    33    32    34   ar
    34    10     3   ar
    35    16    11   ar
    36    27    18    1
    37    34    13   ar
    38     1    35    1
    39     1    36    1
    40     1    37    1
    41     5    38    1
    42     7    39    1
    43     8    40    1
    44    10    41    1
    45    15    42    1
    46    18    43    1
    47    20    44    1
    48    21    45    1
    49    21    46    1
    50    22    47    1
    51    23    48    1
    52    24    49    1
    53    25    50    1
    54    26    51    1
    55    27    52    1
    56    28    53    1
    57    30    54    1
    58    31    55    1
    59    33    56    1
    60    34    57    1
