@<TRIPOS>MOLECULE
Kaempferol 3-O-galactoside 7-O-rhamnoside
 72 76 0 0 0
SMALL
GASTEIGER

@<TRIPOS>ATOM
      1 C           7.8113    2.3606    1.4751 C.3     1  UNL1       -0.0360
      2 C           7.7059    1.0734    0.6498 C.3     1  UNL1        0.0883
      3 O           6.6020    0.2882    1.0958 O.3     1  UNL1       -0.3339
      4 C           5.4124    0.5841    0.3879 C.3     1  UNL1        0.2307
      5 O           4.3232   -0.0610    1.0523 O.3     1  UNL1       -0.4606
      6 C           2.9580    0.1729    0.8157 C.ar    1  UNL1        0.1310
      7 C           2.4924    1.2043   -0.0192 C.ar    1  UNL1        0.0226
      8 C           1.1179    1.3956   -0.2249 C.ar    1  UNL1        0.1348
      9 O           0.6929    2.4282   -1.0624 O.3     1  UNL1       -0.5058
     10 C           0.1837    0.5454    0.4148 C.ar    1  UNL1        0.1092
     11 C          -1.2133    0.6830    0.2658 C.ar    1  UNL1        0.2382
     12 O          -1.6817    1.6088   -0.4479 O.2     1  UNL1       -0.2830
     13 C          -2.0796   -0.2105    0.9376 C.ar    1  UNL1        0.2138
     14 O          -3.4858   -0.1259    0.8850 O.3     1  UNL1       -0.4532
     15 C          -4.2717    0.6438   -0.0256 C.3     1  UNL1        0.2311
     16 O          -3.9562    0.2615   -1.3526 O.3     1  UNL1       -0.3313
     17 C          -4.5132    1.1882   -2.2731 C.3     1  UNL1        0.1140
     18 C          -4.1671    0.7308   -3.6948 C.3     1  UNL1        0.0731
     19 O          -4.6947   -0.5441   -3.9392 O.3     1  UNL1       -0.3924
     20 C          -6.0576    1.3575   -2.0844 C.3     1  UNL1        0.1120
     21 O          -6.3466    2.6600   -1.6435 O.3     1  UNL1       -0.3865
     22 C          -6.6008    0.3516   -1.0548 C.3     1  UNL1        0.1152
     23 O          -6.5421   -0.9415   -1.6064 O.3     1  UNL1       -0.3864
     24 C          -5.7808    0.4170    0.2584 C.3     1  UNL1        0.1454
     25 O          -5.9738   -0.7563    1.0096 O.3     1  UNL1       -0.3829
     26 C          -1.5050   -1.2210    1.7354 C.ar    1  UNL1        0.1809
     27 O          -0.1854   -1.3024    1.8659 O.2     1  UNL1       -0.4507
     28 C           0.6603   -0.4848    1.2540 C.ar    1  UNL1        0.1465
     29 C           2.0327   -0.6591    1.4492 C.ar    1  UNL1        0.0235
     30 C          -2.3349   -2.2114    2.4576 C.ar    1  UNL1        0.0213
     31 C          -2.0160   -2.5469    3.7836 C.ar    1  UNL1       -0.0475
     32 C          -2.7781   -3.4922    4.4770 C.ar    1  UNL1       -0.0195
     33 C          -3.8586   -4.1242    3.8475 C.ar    1  UNL1        0.1169
     34 O          -4.6262   -5.0660    4.5290 O.3     1  UNL1       -0.5068
     35 C          -4.1675   -3.8111    2.5205 C.ar    1  UNL1       -0.0195
     36 C          -3.4067   -2.8672    1.8245 C.ar    1  UNL1       -0.0475
     37 C           5.5329    0.0894   -1.0811 C.3     1  UNL1        0.1454
     38 O           5.0874   -1.2380   -1.2178 O.3     1  UNL1       -0.3829
     39 C           6.9794    0.2249   -1.6143 C.3     1  UNL1        0.1151
     40 O           6.9435    0.4786   -2.9960 O.3     1  UNL1       -0.3864
     41 C           7.7087    1.3610   -0.8823 C.3     1  UNL1        0.1096
     42 O           9.0282    1.4542   -1.3557 O.3     1  UNL1       -0.3866
     43 H           8.7528    2.8969    1.2324 H       1  UNL1        0.0255
     44 H           7.8198    2.1126    2.5576 H       1  UNL1        0.0255
     45 H           6.9540    3.0357    1.2722 H       1  UNL1        0.0255
     46 H           8.6172    0.4764    0.8749 H       1  UNL1        0.0621
     47 H           5.2349    1.6830    0.4104 H       1  UNL1        0.1084
     48 H           3.1834    1.8731   -0.5101 H       1  UNL1        0.0691
     49 H           1.3499    3.0439   -1.5275 H       1  UNL1        0.2922
     50 H          -4.0448    1.7219    0.1495 H       1  UNL1        0.1084
     51 H          -4.0111    2.1755   -2.1414 H       1  UNL1        0.0647
     52 H          -3.0598    0.7025   -3.8068 H       1  UNL1        0.0584
     53 H          -4.5740    1.4592   -4.4322 H       1  UNL1        0.0584
     54 H          -4.4406   -0.7730   -4.8707 H       1  UNL1        0.2095
     55 H          -6.6014    1.1794   -3.0429 H       1  UNL1        0.0647
     56 H          -6.2312    3.2587   -2.4273 H       1  UNL1        0.2100
     57 H          -7.6629    0.6155   -0.8336 H       1  UNL1        0.0648
     58 H          -7.2541   -1.4784   -1.1700 H       1  UNL1        0.2100
     59 H          -6.1416    1.2883    0.8552 H       1  UNL1        0.0683
     60 H          -6.8927   -0.7101    1.3831 H       1  UNL1        0.2102
     61 H           2.3846   -1.4540    2.0956 H       1  UNL1        0.0691
     62 H          -1.1849   -2.0671    4.2860 H       1  UNL1        0.0626
     63 H          -2.5276   -3.7330    5.5023 H       1  UNL1        0.0654
     64 H          -4.4268   -5.3156    5.4907 H       1  UNL1        0.2921
     65 H          -4.9932   -4.3059    2.0250 H       1  UNL1        0.0654
     66 H          -3.6440   -2.6658    0.7875 H       1  UNL1        0.0626
     67 H           4.8693    0.7284   -1.7026 H       1  UNL1        0.0683
     68 H           5.6182   -1.7977   -0.5921 H       1  UNL1        0.2102
     69 H           7.5317   -0.7263   -1.4196 H       1  UNL1        0.0648
     70 H           7.8245    0.2070   -3.3644 H       1  UNL1        0.2100
     71 H           7.1637    2.3115   -1.0994 H       1  UNL1        0.0646
     72 H           9.3576    2.3579   -1.1111 H       1  UNL1        0.2100
@<TRIPOS>BOND
     1     1     2    1
     2     2     3    1
     3     3     4    1
     4     4     5    1
     5     5     6    1
     6     6     7   ar
     7     7     8   ar
     8     8     9    1
     9     8    10   ar
    10    10    11   ar
    11    11    12    2
    12    11    13   ar
    13    13    14    1
    14    14    15    1
    15    15    16    1
    16    16    17    1
    17    17    18    1
    18    18    19    1
    19    17    20    1
    20    20    21    1
    21    20    22    1
    22    22    23    1
    23    22    24    1
    24    24    25    1
    25    13    26   ar
    26    26    27   ar
    27    27    28   ar
    28    28    29   ar
    29    26    30    1
    30    30    31   ar
    31    31    32   ar
    32    32    33   ar
    33    33    34    1
    34    33    35   ar
    35    35    36   ar
    36     4    37    1
    37    37    38    1
    38    37    39    1
    39    39    40    1
    40    39    41    1
    41    41    42    1
    42    41     2    1
    43    29     6   ar
    44    36    30   ar
    45    28    10   ar
    46    24    15    1
    47     1    43    1
    48     1    44    1
    49     1    45    1
    50     2    46    1
    51     4    47    1
    52     7    48    1
    53     9    49    1
    54    15    50    1
    55    17    51    1
    56    18    52    1
    57    18    53    1
    58    19    54    1
    59    20    55    1
    60    21    56    1
    61    22    57    1
    62    23    58    1
    63    24    59    1
    64    25    60    1
    65    29    61    1
    66    31    62    1
    67    32    63    1
    68    34    64    1
    69    35    65    1
    70    36    66    1
    71    37    67    1
    72    38    68    1
    73    39    69    1
    74    40    70    1
    75    41    71    1
    76    42    72    1
