@<TRIPOS>MOLECULE
Kaempferol 3-O-(6''-acetyl-galactoside) 7-O-rhamnoside
 77 81 0 0 0
SMALL
GASTEIGER

@<TRIPOS>ATOM
      1 C           6.5181    2.3160   -0.1280 C.3     1  UNL1        0.0883
      2 C           6.1571    3.7332   -0.5718 C.3     1  UNL1       -0.0360
      3 O           5.7522    1.9836    1.0145 O.3     1  UNL1       -0.3339
      4 C           5.8072    0.5859    1.2832 C.3     1  UNL1        0.2307
      5 O           4.8955   -0.1157    0.4346 O.3     1  UNL1       -0.4606
      6 C           3.5053    0.0767    0.4072 C.ar    1  UNL1        0.1310
      7 C           2.8426    0.9499    1.2885 C.ar    1  UNL1        0.0226
      8 C           1.4509    1.1137    1.2241 C.ar    1  UNL1        0.1348
      9 O           0.8241    1.9875    2.1137 O.3     1  UNL1       -0.5058
     10 C           0.7021    0.3937    0.2644 C.ar    1  UNL1        0.1092
     11 C          -0.6988    0.4931    0.1468 C.ar    1  UNL1        0.2382
     12 O          -1.3644    1.2499    0.9049 O.2     1  UNL1       -0.2830
     13 C          -1.3709   -0.2720   -0.8127 C.ar    1  UNL1        0.2138
     14 O          -2.7699   -0.2234   -0.8645 O.3     1  UNL1       -0.4532
     15 C          -3.5992   -1.3387   -0.5270 C.3     1  UNL1        0.2312
     16 O          -4.9343   -1.0912   -0.9571 O.3     1  UNL1       -0.3302
     17 C          -5.7175   -0.3607   -0.0225 C.3     1  UNL1        0.1250
     18 C          -5.2306    1.1043    0.1044 C.3     1  UNL1        0.1212
     19 O          -6.2303    1.9293    0.7030 O.3     1  UNL1       -0.4621
     20 C          -7.3539    2.4027    0.0165 C.2     1  UNL1        0.3040
     21 C          -8.3857    3.1877    0.7520 C.3     1  UNL1        0.0332
     22 O          -7.5211    2.1446   -1.2065 O.2     1  UNL1       -0.2512
     23 C          -5.8858   -1.1256    1.3294 C.3     1  UNL1        0.1130
     24 O          -5.8531   -0.2314    2.4168 O.3     1  UNL1       -0.3864
     25 C          -4.8069   -2.2170    1.4994 C.3     1  UNL1        0.1152
     26 O          -4.6823   -2.5932    2.8472 O.3     1  UNL1       -0.3864
     27 C          -3.4676   -1.6946    0.9773 C.3     1  UNL1        0.1454
     28 O          -2.4685   -2.6703    1.1397 O.3     1  UNL1       -0.3829
     29 C          -0.6167   -1.0801   -1.6902 C.ar    1  UNL1        0.1809
     30 O           0.7021   -1.1616   -1.5394 O.2     1  UNL1       -0.4507
     31 C           1.3749   -0.4815   -0.6180 C.ar    1  UNL1        0.1465
     32 C           2.7614   -0.6338   -0.5375 C.ar    1  UNL1        0.0235
     33 C          -1.2359   -1.8402   -2.7981 C.ar    1  UNL1        0.0213
     34 C          -0.7962   -3.1447   -3.0756 C.ar    1  UNL1       -0.0475
     35 C          -1.3633   -3.8737   -4.1253 C.ar    1  UNL1       -0.0195
     36 C          -2.3662   -3.3013   -4.9187 C.ar    1  UNL1        0.1169
     37 O          -2.9400   -4.0189   -5.9657 O.3     1  UNL1       -0.5068
     38 C          -2.7935   -1.9954   -4.6607 C.ar    1  UNL1       -0.0195
     39 C          -2.2279   -1.2639   -3.6122 C.ar    1  UNL1       -0.0475
     40 C           7.2316   -0.0145    1.1277 C.3     1  UNL1        0.1454
     41 O           7.4396   -1.0085    2.0981 O.3     1  UNL1       -0.3829
     42 C           8.2956    1.0948    1.2449 C.3     1  UNL1        0.1151
     43 O           8.2563    1.6652    2.5300 O.3     1  UNL1       -0.3864
     44 C           8.0322    2.1974    0.1890 C.3     1  UNL1        0.1096
     45 O           8.7225    1.9023   -0.9991 O.3     1  UNL1       -0.3866
     46 H           6.2556    1.6389   -0.9763 H       1  UNL1        0.0621
     47 H           6.3540    4.4593    0.2459 H       1  UNL1        0.0255
     48 H           5.0788    3.7798   -0.8347 H       1  UNL1        0.0255
     49 H           6.7517    4.0195   -1.4654 H       1  UNL1        0.0255
     50 H           5.4910    0.4401    2.3395 H       1  UNL1        0.1084
     51 H           3.3959    1.5055    2.0325 H       1  UNL1        0.0691
     52 H           1.3473    2.5098    2.8068 H       1  UNL1        0.2922
     53 H          -3.2618   -2.2229   -1.1074 H       1  UNL1        0.1084
     54 H          -6.7327   -0.3015   -0.4706 H       1  UNL1        0.0658
     55 H          -4.9644    1.5073   -0.8974 H       1  UNL1        0.0724
     56 H          -4.3198    1.1530    0.7347 H       1  UNL1        0.0724
     57 H          -7.9382    3.6477    1.6579 H       1  UNL1        0.0342
     58 H          -8.7870    3.9934    0.1017 H       1  UNL1        0.0342
     59 H          -9.2140    2.5149    1.0567 H       1  UNL1        0.0342
     60 H          -6.8760   -1.6424    1.3061 H       1  UNL1        0.0647
     61 H          -6.4156   -0.6207    3.1365 H       1  UNL1        0.2100
     62 H          -5.0909   -3.1101    0.8924 H       1  UNL1        0.0648
     63 H          -5.4846   -3.1357    3.0660 H       1  UNL1        0.2100
     64 H          -3.1934   -0.7770    1.5498 H       1  UNL1        0.0683
     65 H          -2.1321   -2.5907    2.0705 H       1  UNL1        0.2102
     66 H           3.2671   -1.3064   -1.2196 H       1  UNL1        0.0691
     67 H          -0.0241   -3.6039   -2.4703 H       1  UNL1        0.0626
     68 H          -1.0225   -4.8824   -4.3210 H       1  UNL1        0.0654
     69 H          -2.6513   -4.9666   -6.1788 H       1  UNL1        0.2921
     70 H          -3.5606   -1.5444   -5.2774 H       1  UNL1        0.0654
     71 H          -2.5567   -0.2459   -3.4463 H       1  UNL1        0.0626
     72 H           7.3184   -0.4706    0.1124 H       1  UNL1        0.0683
     73 H           8.2417   -1.5211    1.8158 H       1  UNL1        0.2102
     74 H           9.3059    0.6556    1.0666 H       1  UNL1        0.0648
     75 H           8.7488    1.0516    3.1355 H       1  UNL1        0.2100
     76 H           8.4036    3.1684    0.5973 H       1  UNL1        0.0646
     77 H           9.6749    2.1379   -0.8460 H       1  UNL1        0.2100
@<TRIPOS>BOND
     1     1     2    1
     2     1     3    1
     3     3     4    1
     4     4     5    1
     5     5     6    1
     6     6     7   ar
     7     7     8   ar
     8     8     9    1
     9     8    10   ar
    10    10    11   ar
    11    11    12    2
    12    11    13   ar
    13    13    14    1
    14    14    15    1
    15    15    16    1
    16    16    17    1
    17    17    18    1
    18    18    19    1
    19    19    20    1
    20    20    21    1
    21    20    22    2
    22    17    23    1
    23    23    24    1
    24    23    25    1
    25    25    26    1
    26    25    27    1
    27    27    28    1
    28    13    29   ar
    29    29    30   ar
    30    30    31   ar
    31    31    32   ar
    32    29    33    1
    33    33    34   ar
    34    34    35   ar
    35    35    36   ar
    36    36    37    1
    37    36    38   ar
    38    38    39   ar
    39     4    40    1
    40    40    41    1
    41    40    42    1
    42    42    43    1
    43    42    44    1
    44    44    45    1
    45    44     1    1
    46    32     6   ar
    47    39    33   ar
    48    31    10   ar
    49    27    15    1
    50     1    46    1
    51     2    47    1
    52     2    48    1
    53     2    49    1
    54     4    50    1
    55     7    51    1
    56     9    52    1
    57    15    53    1
    58    17    54    1
    59    18    55    1
    60    18    56    1
    61    21    57    1
    62    21    58    1
    63    21    59    1
    64    23    60    1
    65    24    61    1
    66    25    62    1
    67    26    63    1
    68    27    64    1
    69    28    65    1
    70    32    66    1
    71    34    67    1
    72    35    68    1
    73    37    69    1
    74    38    70    1
    75    39    71    1
    76    40    72    1
    77    41    73    1
    78    42    74    1
    79    43    75    1
    80    44    76    1
    81    45    77    1
