@<TRIPOS>MOLECULE
Quercetin 3-O-galactoside 7-O-rhamnoside
 73 77 0 0 0
SMALL
GASTEIGER

@<TRIPOS>ATOM
      1 C           6.8513    2.5755   -1.2625 C.3     1  UNL1       -0.0360
      2 C           6.9716    1.0632   -1.0613 C.3     1  UNL1        0.0883
      3 O           5.6826    0.5629   -0.7117 O.3     1  UNL1       -0.3339
      4 C           5.6854   -0.5789    0.1397 C.3     1  UNL1        0.2307
      5 O           4.4646   -1.2943   -0.0488 O.3     1  UNL1       -0.4606
      6 C           3.1848   -0.7990    0.2483 C.ar    1  UNL1        0.1310
      7 C           2.9750    0.4676    0.8162 C.ar    1  UNL1        0.0226
      8 C           1.6845    0.9234    1.1127 C.ar    1  UNL1        0.1348
      9 O           1.5950    2.1533    1.7716 O.3     1  UNL1       -0.5058
     10 C           0.5552    0.1223    0.7672 C.ar    1  UNL1        0.1092
     11 C          -0.7929    0.5406    0.8896 C.ar    1  UNL1        0.2382
     12 O          -1.0626    1.7118    1.2545 O.2     1  UNL1       -0.2830
     13 C          -1.8408   -0.3522    0.5600 C.ar    1  UNL1        0.2138
     14 O          -3.2125   -0.0248    0.6302 O.3     1  UNL1       -0.4532
     15 C          -3.8131    1.2460    0.8881 C.3     1  UNL1        0.2311
     16 O          -5.1936    1.0142    1.1404 O.3     1  UNL1       -0.3313
     17 C          -5.9207    2.2284    1.1348 C.3     1  UNL1        0.1140
     18 C          -7.2698    2.0054    1.8304 C.3     1  UNL1        0.0731
     19 O          -7.9998    3.2011    1.8603 O.3     1  UNL1       -0.3924
     20 C          -6.0574    2.7556   -0.3233 C.3     1  UNL1        0.1120
     21 O          -7.2603    2.3244   -0.9118 O.3     1  UNL1       -0.3865
     22 C          -4.8544    2.3022   -1.1884 C.3     1  UNL1        0.1152
     23 O          -5.1291    1.0525   -1.7733 O.3     1  UNL1       -0.3864
     24 C          -3.5785    2.1978   -0.3283 C.3     1  UNL1        0.1454
     25 O          -3.2151    3.4722    0.1408 O.3     1  UNL1       -0.3829
     26 C          -1.4981   -1.6398    0.1051 C.ar    1  UNL1        0.1810
     27 O          -0.2250   -1.9711   -0.0649 O.2     1  UNL1       -0.4507
     28 C           0.7859   -1.1645    0.2238 C.ar    1  UNL1        0.1465
     29 C           2.0857   -1.6105   -0.0247 C.ar    1  UNL1        0.0235
     30 C          -2.5273   -2.6489   -0.2345 C.ar    1  UNL1        0.0247
     31 C          -2.3831   -3.4190   -1.4000 C.ar    1  UNL1       -0.0057
     32 C          -3.3370   -4.3913   -1.7338 C.ar    1  UNL1        0.1589
     33 O          -3.1989   -5.1444   -2.8984 O.3     1  UNL1       -0.5033
     34 C          -4.4356   -4.6090   -0.8931 C.ar    1  UNL1        0.1583
     35 O          -5.3828   -5.5746   -1.2288 O.3     1  UNL1       -0.5033
     36 C          -4.5731   -3.8584    0.2818 C.ar    1  UNL1       -0.0159
     37 C          -3.6224   -2.8898    0.6138 C.ar    1  UNL1       -0.0473
     38 C           6.8679   -1.5284   -0.1388 C.3     1  UNL1        0.1454
     39 O           6.7695   -2.6861    0.6535 O.3     1  UNL1       -0.3829
     40 C           8.2083   -0.8023    0.1361 C.3     1  UNL1        0.1151
     41 O           8.7203   -1.1121    1.4101 O.3     1  UNL1       -0.3864
     42 C           8.0787    0.7320   -0.0291 C.3     1  UNL1        0.1096
     43 O           9.3068    1.2680   -0.4517 O.3     1  UNL1       -0.3866
     44 H           7.8035    2.9996   -1.6460 H       1  UNL1        0.0255
     45 H           6.5891    3.0728   -0.3042 H       1  UNL1        0.0255
     46 H           6.0536    2.7932   -2.0043 H       1  UNL1        0.0255
     47 H           7.2595    0.6212   -2.0415 H       1  UNL1        0.0621
     48 H           5.7396   -0.2475    1.2010 H       1  UNL1        0.1084
     49 H           3.8132    1.1031    1.0673 H       1  UNL1        0.0691
     50 H           0.8034    2.4525    2.3213 H       1  UNL1        0.2922
     51 H          -3.3724    1.6666    1.8183 H       1  UNL1        0.1084
     52 H          -5.3858    2.9967    1.7447 H       1  UNL1        0.0647
     53 H          -7.0843    1.6601    2.8722 H       1  UNL1        0.0584
     54 H          -7.8490    1.2148    1.3023 H       1  UNL1        0.0584
     55 H          -8.8578    2.9883    2.3113 H       1  UNL1        0.2095
     56 H          -6.0594    3.8704   -0.2715 H       1  UNL1        0.0647
     57 H          -7.4059    2.8915   -1.7138 H       1  UNL1        0.2100
     58 H          -4.6990    3.0569   -1.9950 H       1  UNL1        0.0648
     59 H          -4.4775    0.9309   -2.5127 H       1  UNL1        0.2100
     60 H          -2.7529    1.7990   -0.9632 H       1  UNL1        0.0683
     61 H          -2.8191    3.9608   -0.6275 H       1  UNL1        0.2102
     62 H           2.2422   -2.5950   -0.4490 H       1  UNL1        0.0691
     63 H          -1.5368   -3.2556   -2.0566 H       1  UNL1        0.0662
     64 H          -2.4152   -5.0104   -3.5267 H       1  UNL1        0.2923
     65 H          -6.1873   -5.7552   -0.6396 H       1  UNL1        0.2923
     66 H          -5.4131   -4.0304    0.9428 H       1  UNL1        0.0655
     67 H          -3.7331   -2.3450    1.5428 H       1  UNL1        0.0626
     68 H           6.8385   -1.8102   -1.2191 H       1  UNL1        0.0683
     69 H           6.1382   -3.3003    0.1953 H       1  UNL1        0.2102
     70 H           8.9409   -1.1777   -0.6129 H       1  UNL1        0.0648
     71 H           8.0458   -0.8303    2.0822 H       1  UNL1        0.2100
     72 H           7.7844    1.1973    0.9419 H       1  UNL1        0.0646
     73 H           9.9078    1.2608    0.3386 H       1  UNL1        0.2100
@<TRIPOS>BOND
     1     1     2    1
     2     2     3    1
     3     3     4    1
     4     4     5    1
     5     5     6    1
     6     6     7   ar
     7     7     8   ar
     8     8     9    1
     9     8    10   ar
    10    10    11   ar
    11    11    12    2
    12    11    13   ar
    13    13    14    1
    14    14    15    1
    15    15    16    1
    16    16    17    1
    17    17    18    1
    18    18    19    1
    19    17    20    1
    20    20    21    1
    21    20    22    1
    22    22    23    1
    23    22    24    1
    24    24    25    1
    25    13    26   ar
    26    26    27   ar
    27    27    28   ar
    28    28    29   ar
    29    26    30    1
    30    30    31   ar
    31    31    32   ar
    32    32    33    1
    33    32    34   ar
    34    34    35    1
    35    34    36   ar
    36    36    37   ar
    37     4    38    1
    38    38    39    1
    39    38    40    1
    40    40    41    1
    41    40    42    1
    42    42    43    1
    43    42     2    1
    44    29     6   ar
    45    37    30   ar
    46    28    10   ar
    47    24    15    1
    48     1    44    1
    49     1    45    1
    50     1    46    1
    51     2    47    1
    52     4    48    1
    53     7    49    1
    54     9    50    1
    55    15    51    1
    56    17    52    1
    57    18    53    1
    58    18    54    1
    59    19    55    1
    60    20    56    1
    61    21    57    1
    62    22    58    1
    63    23    59    1
    64    24    60    1
    65    25    61    1
    66    29    62    1
    67    31    63    1
    68    33    64    1
    69    35    65    1
    70    36    66    1
    71    37    67    1
    72    38    68    1
    73    39    69    1
    74    40    70    1
    75    41    71    1
    76    42    72    1
    77    43    73    1
