@<TRIPOS>MOLECULE
Quercetin 3-O-(6''-acetyl-galactoside) 7-O-rhamnoside
 78 82 0 0 0
SMALL
GASTEIGER

@<TRIPOS>ATOM
      1 C           6.1853   -3.2890   -1.3731 C.3     1  UNL1       -0.0360
      2 C           6.9733   -1.9837   -1.2283 C.3     1  UNL1        0.0883
      3 O           6.1124   -0.9243   -0.8136 O.3     1  UNL1       -0.3339
      4 C           6.0808   -0.7755    0.5959 C.3     1  UNL1        0.2307
      5 O           5.0341    0.1282    0.9537 O.3     1  UNL1       -0.4606
      6 C           3.6629   -0.1007    0.7582 C.ar    1  UNL1        0.1310
      7 C           2.7716    0.9130    1.1037 C.ar    1  UNL1        0.0235
      8 C           1.3945    0.7392    0.9527 C.ar    1  UNL1        0.1465
      9 C           0.8726   -0.4722    0.4315 C.ar    1  UNL1        0.1092
     10 C           1.7893   -1.4887    0.0298 C.ar    1  UNL1        0.1348
     11 O           1.4099   -2.6837   -0.5894 O.3     1  UNL1       -0.5058
     12 C           3.1624   -1.3004    0.2295 C.ar    1  UNL1        0.0226
     13 C          -0.5367   -0.5876    0.3689 C.ar    1  UNL1        0.2382
     14 O          -1.0982   -1.6544    0.0074 O.2     1  UNL1       -0.2830
     15 C          -1.3437    0.4973    0.7292 C.ar    1  UNL1        0.2138
     16 O          -2.7311    0.3980    0.5625 O.3     1  UNL1       -0.4532
     17 C          -3.4552    1.1812   -0.3907 C.3     1  UNL1        0.2312
     18 O          -4.8484    1.0836   -0.1207 O.3     1  UNL1       -0.3302
     19 C          -5.3904   -0.1202   -0.6347 C.3     1  UNL1        0.1250
     20 C          -6.7781   -0.3370   -0.0132 C.3     1  UNL1        0.1212
     21 O          -7.3777   -1.5403   -0.4924 O.3     1  UNL1       -0.4621
     22 C          -6.9850   -2.8166   -0.0746 C.2     1  UNL1        0.3040
     23 C          -7.6323   -4.0162   -0.6775 C.3     1  UNL1        0.0332
     24 O          -6.1262   -2.9628    0.8372 O.2     1  UNL1       -0.2512
     25 C          -5.4659   -0.0574   -2.1853 C.3     1  UNL1        0.1130
     26 O          -5.3797   -1.3656   -2.6946 O.3     1  UNL1       -0.3864
     27 C          -4.3288    0.8324   -2.7526 C.3     1  UNL1        0.1152
     28 O          -4.0236    0.5044   -4.0868 O.3     1  UNL1       -0.3864
     29 C          -3.0824    0.7639   -1.8454 C.3     1  UNL1        0.1454
     30 O          -2.0367    1.5580   -2.3492 O.3     1  UNL1       -0.3829
     31 C          -0.7363    1.6578    1.2471 C.ar    1  UNL1        0.1810
     32 O           0.5873    1.7262    1.3233 O.2     1  UNL1       -0.4507
     33 C          -1.5196    2.8118    1.7409 C.ar    1  UNL1        0.0247
     34 C          -1.0944    4.1154    1.4437 C.ar    1  UNL1       -0.0473
     35 C          -1.8180    5.2174    1.9061 C.ar    1  UNL1       -0.0159
     36 C          -2.9668    5.0341    2.6820 C.ar    1  UNL1        0.1583
     37 O          -3.6713    6.1530    3.1251 O.3     1  UNL1       -0.5033
     38 C          -3.3899    3.7338    3.0048 C.ar    1  UNL1        0.1589
     39 O          -4.5290    3.5435    3.7856 O.3     1  UNL1       -0.5033
     40 C          -2.6611    2.6290    2.5414 C.ar    1  UNL1       -0.0057
     41 C           7.4365   -0.2316    1.1135 C.3     1  UNL1        0.1454
     42 O           7.4751    1.1711    1.0179 O.3     1  UNL1       -0.3829
     43 C           8.6190   -0.8176    0.3032 C.3     1  UNL1        0.1151
     44 O           9.7685   -0.9379    1.1045 O.3     1  UNL1       -0.3864
     45 C           8.2340   -2.1691   -0.3304 C.3     1  UNL1        0.1096
     46 O           9.3039   -2.7145   -1.0633 O.3     1  UNL1       -0.3866
     47 H           6.8311   -4.0764   -1.8169 H       1  UNL1        0.0255
     48 H           5.3133   -3.1301   -2.0423 H       1  UNL1        0.0255
     49 H           5.8187   -3.6427   -0.3869 H       1  UNL1        0.0255
     50 H           7.3220   -1.7111   -2.2483 H       1  UNL1        0.0621
     51 H           5.8769   -1.7521    1.0933 H       1  UNL1        0.1084
     52 H           3.1529    1.8429    1.5084 H       1  UNL1        0.0691
     53 H           0.5226   -2.8449   -1.0403 H       1  UNL1        0.2922
     54 H           3.8347   -2.0943   -0.0596 H       1  UNL1        0.0691
     55 H          -3.1932    2.2509   -0.2571 H       1  UNL1        0.1084
     56 H          -4.7534   -0.9830   -0.3264 H       1  UNL1        0.0658
     57 H          -7.4382    0.5173   -0.2755 H       1  UNL1        0.0724
     58 H          -6.6989   -0.3679    1.0957 H       1  UNL1        0.0724
     59 H          -7.9985   -3.7754   -1.6975 H       1  UNL1        0.0342
     60 H          -8.4894   -4.3303   -0.0466 H       1  UNL1        0.0342
     61 H          -6.9020   -4.8499   -0.7471 H       1  UNL1        0.0342
     62 H          -6.4366    0.4042   -2.4896 H       1  UNL1        0.0647
     63 H          -5.8659   -1.3747   -3.5602 H       1  UNL1        0.2100
     64 H          -4.6917    1.8848   -2.7469 H       1  UNL1        0.0648
     65 H          -3.5269   -0.3553   -4.0851 H       1  UNL1        0.2100
     66 H          -2.7290   -0.2908   -1.8339 H       1  UNL1        0.0683
     67 H          -2.3745    2.4886   -2.4258 H       1  UNL1        0.2102
     68 H          -0.2101    4.2798    0.8400 H       1  UNL1        0.0626
     69 H          -1.4857    6.2179    1.6597 H       1  UNL1        0.0655
     70 H          -4.5085    6.0727    3.6897 H       1  UNL1        0.2923
     71 H          -4.8559    2.6161    4.0304 H       1  UNL1        0.2923
     72 H          -2.9809    1.6318    2.8163 H       1  UNL1        0.0662
     73 H           7.5376   -0.5398    2.1818 H       1  UNL1        0.0683
     74 H           7.0540    1.5325    1.8414 H       1  UNL1        0.2102
     75 H           8.8609   -0.1158   -0.5268 H       1  UNL1        0.0648
     76 H           9.5814   -1.6214    1.8001 H       1  UNL1        0.2100
     77 H           7.9969   -2.8782    0.4943 H       1  UNL1        0.0646
     78 H           9.5697   -2.0507   -1.7522 H       1  UNL1        0.2100
@<TRIPOS>BOND
     1     1     2    1
     2     2     3    1
     3     3     4    1
     4     4     5    1
     5     5     6    1
     6     6     7   ar
     7     7     8   ar
     8     8     9   ar
     9     9    10   ar
    10    10    11    1
    11    10    12   ar
    12     9    13   ar
    13    13    14    2
    14    13    15   ar
    15    15    16    1
    16    16    17    1
    17    17    18    1
    18    18    19    1
    19    19    20    1
    20    20    21    1
    21    21    22    1
    22    22    23    1
    23    22    24    2
    24    19    25    1
    25    25    26    1
    26    25    27    1
    27    27    28    1
    28    27    29    1
    29    29    30    1
    30    15    31   ar
    31    31    32   ar
    32    31    33    1
    33    33    34   ar
    34    34    35   ar
    35    35    36   ar
    36    36    37    1
    37    36    38   ar
    38    38    39    1
    39    38    40   ar
    40     4    41    1
    41    41    42    1
    42    41    43    1
    43    43    44    1
    44    43    45    1
    45    45    46    1
    46    45     2    1
    47    12     6   ar
    48    29    17    1
    49    40    33   ar
    50    32     8   ar
    51     1    47    1
    52     1    48    1
    53     1    49    1
    54     2    50    1
    55     4    51    1
    56     7    52    1
    57    11    53    1
    58    12    54    1
    59    17    55    1
    60    19    56    1
    61    20    57    1
    62    20    58    1
    63    23    59    1
    64    23    60    1
    65    23    61    1
    66    25    62    1
    67    26    63    1
    68    27    64    1
    69    28    65    1
    70    29    66    1
    71    30    67    1
    72    34    68    1
    73    35    69    1
    74    37    70    1
    75    39    71    1
    76    40    72    1
    77    41    73    1
    78    42    74    1
    79    43    75    1
    80    44    76    1
    81    45    77    1
    82    46    78    1
