@<TRIPOS>MOLECULE
Kaempferol 3-O-(2''-rhamnosyl-galactoside) 7-O-rhamnoside
 92 97 0 0 0
SMALL
GASTEIGER

@<TRIPOS>ATOM
      1 C           8.8198    0.4341    1.6591 C.3     1  UNL1        0.0883
      2 C          10.0523   -0.1837    2.3190 C.3     1  UNL1       -0.0360
      3 O           8.1320   -0.5717    0.9370 O.3     1  UNL1       -0.3339
      4 C           6.8224   -0.1459    0.5804 C.3     1  UNL1        0.2307
      5 O           5.9703   -0.2587    1.7256 O.3     1  UNL1       -0.4606
      6 C           4.5659   -0.2389    1.7188 C.ar    1  UNL1        0.1310
      7 C           3.9078   -0.0906    2.9425 C.ar    1  UNL1        0.0226
      8 C           2.5080   -0.0588    3.0135 C.ar    1  UNL1        0.1348
      9 O           1.8926    0.0949    4.2566 O.3     1  UNL1       -0.5058
     10 C           1.7413   -0.1841    1.8304 C.ar    1  UNL1        0.1092
     11 C           0.3300   -0.1646    1.8197 C.ar    1  UNL1        0.2382
     12 O          -0.3082   -0.0012    2.8931 O.2     1  UNL1       -0.2830
     13 C          -0.3611   -0.3149    0.5974 C.ar    1  UNL1        0.2138
     14 O          -1.7654   -0.3732    0.5012 O.3     1  UNL1       -0.4532
     15 C          -2.6673   -0.8011    1.5243 C.3     1  UNL1        0.2315
     16 O          -2.2515   -2.0543    2.0671 O.3     1  UNL1       -0.3313
     17 C          -2.7125   -3.1853    1.3382 C.3     1  UNL1        0.1140
     18 C          -2.0148   -3.2984   -0.0370 C.3     1  UNL1        0.0731
     19 O          -2.1383   -4.6010   -0.5382 O.3     1  UNL1       -0.3924
     20 C          -4.2735   -3.2681    1.3094 C.3     1  UNL1        0.1120
     21 O          -4.7421   -3.7130    0.0589 O.3     1  UNL1       -0.3865
     22 C          -4.9157   -1.9123    1.6518 C.3     1  UNL1        0.1155
     23 O          -6.2551   -1.8976    1.2251 O.3     1  UNL1       -0.3863
     24 C          -4.1192   -0.7871    0.9822 C.3     1  UNL1        0.1519
     25 O          -4.7121    0.4678    1.2903 O.3     1  UNL1       -0.3366
     26 C          -5.3290    1.0456    0.1558 C.3     1  UNL1        0.1885
     27 O          -4.3223    1.4634   -0.7547 O.3     1  UNL1       -0.3431
     28 C          -4.8623    1.9952   -1.9565 C.3     1  UNL1        0.0873
     29 C          -5.4781    0.9071   -2.8545 C.3     1  UNL1       -0.0361
     30 C          -5.8070    3.2032   -1.7042 C.3     1  UNL1        0.1095
     31 O          -5.0613    4.3613   -1.4136 O.3     1  UNL1       -0.3866
     32 C          -6.8328    2.9319   -0.5837 C.3     1  UNL1        0.1140
     33 O          -7.8725    2.1285   -1.0847 O.3     1  UNL1       -0.3864
     34 C          -6.1582    2.2500    0.6231 C.3     1  UNL1        0.1341
     35 O          -7.1245    1.8230    1.5489 O.3     1  UNL1       -0.3841
     36 C           0.3948   -0.4418   -0.5837 C.ar    1  UNL1        0.1809
     37 O           1.7219   -0.4629   -0.5317 O.2     1  UNL1       -0.4507
     38 C           2.4092   -0.3431    0.5963 C.ar    1  UNL1        0.1465
     39 C           3.8058   -0.3747    0.5452 C.ar    1  UNL1        0.0235
     40 C          -0.2508   -0.6008   -1.9029 C.ar    1  UNL1        0.0213
     41 C           0.1887   -1.6139   -2.7695 C.ar    1  UNL1       -0.0475
     42 C          -0.4003   -1.7723   -4.0272 C.ar    1  UNL1       -0.0195
     43 C          -1.4202   -0.9053   -4.4403 C.ar    1  UNL1        0.1169
     44 O          -2.0114   -1.0495   -5.6933 O.3     1  UNL1       -0.5068
     45 C          -1.8467    0.1186   -3.5894 C.ar    1  UNL1       -0.0195
     46 C          -1.2698    0.2706   -2.3249 C.ar    1  UNL1       -0.0475
     47 C           6.7954    1.3108    0.0123 C.3     1  UNL1        0.1454
     48 O           5.8513    1.4585   -1.0195 O.3     1  UNL1       -0.3829
     49 C           8.1991    1.7579   -0.4496 C.3     1  UNL1        0.1151
     50 O           8.6166    0.9777   -1.5440 O.3     1  UNL1       -0.3864
     51 C           9.2200    1.5934    0.7053 C.3     1  UNL1        0.1096
     52 O           9.3685    2.7937    1.4242 O.3     1  UNL1       -0.3866
     53 H           8.1783    0.8228    2.4856 H       1  UNL1        0.0621
     54 H           9.7390   -0.9799    3.0272 H       1  UNL1        0.0255
     55 H          10.6144    0.5903    2.8839 H       1  UNL1        0.0255
     56 H          10.7200   -0.6335    1.5532 H       1  UNL1        0.0255
     57 H           6.4801   -0.8586   -0.1984 H       1  UNL1        0.1084
     58 H           4.4932    0.0066    3.8485 H       1  UNL1        0.0691
     59 H           2.4305    0.1850    5.1108 H       1  UNL1        0.2922
     60 H          -2.6342   -0.0639    2.3536 H       1  UNL1        0.1084
     61 H          -2.3671   -4.0727    1.9134 H       1  UNL1        0.0647
     62 H          -0.9340   -3.0677    0.0888 H       1  UNL1        0.0584
     63 H          -2.4498   -2.5760   -0.7614 H       1  UNL1        0.0584
     64 H          -1.6819   -4.6014   -1.4197 H       1  UNL1        0.2095
     65 H          -4.6069   -3.9819    2.1014 H       1  UNL1        0.0647
     66 H          -4.7158   -4.7053    0.0762 H       1  UNL1        0.2100
     67 H          -4.8739   -1.7743    2.7600 H       1  UNL1        0.0648
     68 H          -6.7276   -1.2191    1.7748 H       1  UNL1        0.2100
     69 H          -4.0836   -0.9994   -0.1155 H       1  UNL1        0.0687
     70 H          -6.0184    0.3016   -0.3066 H       1  UNL1        0.0938
     71 H          -3.9986    2.3904   -2.5345 H       1  UNL1        0.0621
     72 H          -5.6026    1.2980   -3.8867 H       1  UNL1        0.0255
     73 H          -4.8054    0.0246   -2.8928 H       1  UNL1        0.0255
     74 H          -6.4714    0.5762   -2.4940 H       1  UNL1        0.0255
     75 H          -6.3665    3.4158   -2.6419 H       1  UNL1        0.0646
     76 H          -4.4670    4.1592   -0.6452 H       1  UNL1        0.2100
     77 H          -7.2522    3.9125   -0.2541 H       1  UNL1        0.0648
     78 H          -8.6710    2.2969   -0.5192 H       1  UNL1        0.2100
     79 H          -5.4702    2.9738    1.1194 H       1  UNL1        0.0671
     80 H          -7.4674    2.6384    1.9998 H       1  UNL1        0.2101
     81 H           4.2796   -0.5189   -0.4140 H       1  UNL1        0.0691
     82 H           0.9777   -2.2911   -2.4655 H       1  UNL1        0.0626
     83 H          -0.0603   -2.5652   -4.6811 H       1  UNL1        0.0654
     84 H          -1.7239   -1.7806   -6.3333 H       1  UNL1        0.2921
     85 H          -2.6191    0.8024   -3.9146 H       1  UNL1        0.0654
     86 H          -1.6011    1.0810   -1.6878 H       1  UNL1        0.0626
     87 H           6.4872    1.9963    0.8323 H       1  UNL1        0.0683
     88 H           6.0737    0.8075   -1.7344 H       1  UNL1        0.2102
     89 H           8.1605    2.8343   -0.7448 H       1  UNL1        0.0648
     90 H           8.3205    1.4449   -2.3685 H       1  UNL1        0.2100
     91 H          10.2087    1.3675    0.2463 H       1  UNL1        0.0646
     92 H           8.4771    3.0450    1.7817 H       1  UNL1        0.2100
@<TRIPOS>BOND
     1     1     2    1
     2     1     3    1
     3     3     4    1
     4     4     5    1
     5     5     6    1
     6     6     7   ar
     7     7     8   ar
     8     8     9    1
     9     8    10   ar
    10    10    11   ar
    11    11    12    2
    12    11    13   ar
    13    13    14    1
    14    14    15    1
    15    15    16    1
    16    16    17    1
    17    17    18    1
    18    18    19    1
    19    17    20    1
    20    20    21    1
    21    20    22    1
    22    22    23    1
    23    22    24    1
    24    24    25    1
    25    25    26    1
    26    26    27    1
    27    27    28    1
    28    28    29    1
    29    28    30    1
    30    30    31    1
    31    30    32    1
    32    32    33    1
    33    32    34    1
    34    34    35    1
    35    13    36   ar
    36    36    37   ar
    37    37    38   ar
    38    38    39   ar
    39    36    40    1
    40    40    41   ar
    41    41    42   ar
    42    42    43   ar
    43    43    44    1
    44    43    45   ar
    45    45    46   ar
    46     4    47    1
    47    47    48    1
    48    47    49    1
    49    49    50    1
    50    49    51    1
    51    51    52    1
    52    51     1    1
    53    39     6   ar
    54    46    40   ar
    55    38    10   ar
    56    24    15    1
    57    34    26    1
    58     1    53    1
    59     2    54    1
    60     2    55    1
    61     2    56    1
    62     4    57    1
    63     7    58    1
    64     9    59    1
    65    15    60    1
    66    17    61    1
    67    18    62    1
    68    18    63    1
    69    19    64    1
    70    20    65    1
    71    21    66    1
    72    22    67    1
    73    23    68    1
    74    24    69    1
    75    26    70    1
    76    28    71    1
    77    29    72    1
    78    29    73    1
    79    29    74    1
    80    30    75    1
    81    31    76    1
    82    32    77    1
    83    33    78    1
    84    34    79    1
    85    35    80    1
    86    39    81    1
    87    41    82    1
    88    42    83    1
    89    44    84    1
    90    45    85    1
    91    46    86    1
    92    47    87    1
    93    48    88    1
    94    49    89    1
    95    50    90    1
    96    51    91    1
    97    52    92    1
