@<TRIPOS>MOLECULE
Kaempferol 3-O-(2''-rhamnosyl-6''-acetyl-galactoside) 7-O-rhamnoside
 95 100 0 0 0
SMALL
GASTEIGER

@<TRIPOS>ATOM
      1 C           7.2821   -0.2044    0.2329 C.3     1  UNL1        0.0883
      2 C           6.9017   -0.6609    1.6409 C.3     1  UNL1       -0.0360
      3 O           6.4156   -0.8233   -0.6981 O.3     1  UNL1       -0.3339
      4 C           6.4923   -0.1987   -1.9758 C.3     1  UNL1        0.2307
      5 O           5.6840    0.9803   -1.9949 O.3     1  UNL1       -0.4606
      6 C           4.2981    1.0136   -1.7738 C.ar    1  UNL1        0.1310
      7 C           3.6650    2.2594   -1.7462 C.ar    1  UNL1        0.0226
      8 C           2.2850    2.3649   -1.5215 C.ar    1  UNL1        0.1348
      9 O           1.6911    3.6275   -1.4975 O.3     1  UNL1       -0.5058
     10 C           1.5159    1.1955   -1.3214 C.ar    1  UNL1        0.1092
     11 C           0.1278    1.2182   -1.0783 C.ar    1  UNL1        0.2382
     12 O          -0.5090    2.3057   -1.0258 O.2     1  UNL1       -0.2830
     13 C          -0.5593    0.0160   -0.8821 C.ar    1  UNL1        0.2138
     14 O          -1.9272    0.0406   -0.5995 O.3     1  UNL1       -0.4532
     15 C          -2.4225    0.0681    0.7364 C.3     1  UNL1        0.2315
     16 O          -1.9889   -1.0974    1.4140 O.3     1  UNL1       -0.3301
     17 C          -2.2488   -1.0071    2.8074 C.3     1  UNL1        0.1251
     18 C          -1.8501   -2.3455    3.4420 C.3     1  UNL1        0.1246
     19 O          -0.4777   -2.6134    3.1683 O.3     1  UNL1       -0.4312
     20 C           0.1592   -3.7842    3.5851 C.2     1  UNL1        0.5078
     21 O           1.5019   -3.9749    3.2801 O.3     1  UNL1       -0.4496
     22 O          -0.4707   -4.6676    4.2279 O.2     1  UNL1       -0.2030
     23 C          -3.7339   -0.6007    3.0964 C.3     1  UNL1        0.1130
     24 O          -4.3037   -1.2887    4.1857 O.3     1  UNL1       -0.3864
     25 C          -4.5970   -0.7170    1.8231 C.3     1  UNL1        0.1156
     26 O          -4.6716   -2.0630    1.4204 O.3     1  UNL1       -0.3863
     27 C          -3.9736    0.1375    0.6946 C.3     1  UNL1        0.1519
     28 O          -4.3938    1.4821    0.8671 O.3     1  UNL1       -0.3366
     29 C          -4.4870    2.1784   -0.3671 C.3     1  UNL1        0.1885
     30 O          -4.1107    3.5346   -0.1581 O.3     1  UNL1       -0.3431
     31 C          -5.1666    4.2783    0.4225 C.3     1  UNL1        0.0873
     32 C          -4.6126    5.6056    0.9396 C.3     1  UNL1       -0.0361
     33 C          -6.2944    4.5110   -0.6166 C.3     1  UNL1        0.1095
     34 O          -7.5194    4.6297    0.0620 O.3     1  UNL1       -0.3866
     35 C          -6.3614    3.3464   -1.6342 C.3     1  UNL1        0.1140
     36 O          -5.5223    3.6367   -2.7254 O.3     1  UNL1       -0.3864
     37 C          -5.9186    2.0306   -0.9645 C.3     1  UNL1        0.1341
     38 O          -5.9449    0.9755   -1.8916 O.3     1  UNL1       -0.3841
     39 C           0.1496   -1.1997   -0.9586 C.ar    1  UNL1        0.1809
     40 O           1.4612   -1.1825   -1.1777 O.2     1  UNL1       -0.4507
     41 C           2.1568   -0.0646   -1.3568 C.ar    1  UNL1        0.1465
     42 C           3.5335   -0.1500   -1.5822 C.ar    1  UNL1        0.0235
     43 C          -0.5123   -2.5116   -0.7707 C.ar    1  UNL1        0.0213
     44 C          -1.7770   -2.7854   -1.3240 C.ar    1  UNL1       -0.0475
     45 C          -2.3975   -4.0165   -1.0933 C.ar    1  UNL1       -0.0195
     46 C          -1.7552   -4.9956   -0.3246 C.ar    1  UNL1        0.1169
     47 O          -2.3672   -6.2231   -0.0818 O.3     1  UNL1       -0.5068
     48 C          -0.4855   -4.7411    0.2014 C.ar    1  UNL1       -0.0195
     49 C           0.1364   -3.5100   -0.0256 C.ar    1  UNL1       -0.0475
     50 C           7.9472    0.1607   -2.4025 C.3     1  UNL1        0.1454
     51 O           8.1232    0.0494   -3.7936 O.3     1  UNL1       -0.3829
     52 C           8.9945   -0.6715   -1.6276 C.3     1  UNL1        0.1151
     53 O           8.9967   -2.0148   -2.0511 O.3     1  UNL1       -0.3864
     54 C           8.7558   -0.5710   -0.0932 C.3     1  UNL1        0.1096
     55 O           9.6321    0.3611    0.4917 O.3     1  UNL1       -0.3866
     56 H           7.1463    0.9032    0.2081 H       1  UNL1        0.0621
     57 H           6.9752   -1.7663    1.7255 H       1  UNL1        0.0255
     58 H           7.5725   -0.1919    2.3920 H       1  UNL1        0.0255
     59 H           5.8564   -0.3577    1.8629 H       1  UNL1        0.0255
     60 H           6.0810   -0.9172   -2.7173 H       1  UNL1        0.1084
     61 H           4.2544    3.1553   -1.8968 H       1  UNL1        0.0691
     62 H           2.2308    4.4734   -1.6389 H       1  UNL1        0.2922
     63 H          -2.0134    0.9788    1.2361 H       1  UNL1        0.1084
     64 H          -1.5787   -0.2351    3.2522 H       1  UNL1        0.0658
     65 H          -2.4750   -3.1616    3.0167 H       1  UNL1        0.0726
     66 H          -1.9951   -2.3033    4.5436 H       1  UNL1        0.0726
     67 H           1.9847   -4.8186    3.5651 H       1  UNL1        0.2987
     68 H          -3.7277    0.4763    3.3776 H       1  UNL1        0.0647
     69 H          -4.5188   -2.2120    3.8943 H       1  UNL1        0.2100
     70 H          -5.6223   -0.3414    2.0538 H       1  UNL1        0.0648
     71 H          -5.4557   -2.1401    0.8163 H       1  UNL1        0.2100
     72 H          -4.3425   -0.2900   -0.2684 H       1  UNL1        0.0687
     73 H          -3.7586    1.7912   -1.1171 H       1  UNL1        0.0938
     74 H          -5.5769    3.7369    1.3086 H       1  UNL1        0.0621
     75 H          -4.1467    6.1820    0.1118 H       1  UNL1        0.0255
     76 H          -5.4261    6.2111    1.3933 H       1  UNL1        0.0255
     77 H          -3.8410    5.4130    1.7150 H       1  UNL1        0.0255
     78 H          -6.0941    5.4549   -1.1792 H       1  UNL1        0.0646
     79 H          -8.1514    5.0782   -0.5588 H       1  UNL1        0.2100
     80 H          -7.4123    3.2401   -1.9946 H       1  UNL1        0.0648
     81 H          -5.8345    3.0826   -3.4878 H       1  UNL1        0.2100
     82 H          -6.6304    1.8075   -0.1338 H       1  UNL1        0.0671
     83 H          -6.8999    0.7491   -2.0415 H       1  UNL1        0.2101
     84 H           3.9934   -1.1283   -1.6075 H       1  UNL1        0.0691
     85 H          -2.2828   -2.0545   -1.9413 H       1  UNL1        0.0626
     86 H          -3.3756   -4.2095   -1.5151 H       1  UNL1        0.0654
     87 H          -3.2869   -6.4378   -0.4489 H       1  UNL1        0.2921
     88 H           0.0173   -5.4955    0.7931 H       1  UNL1        0.0654
     89 H           1.1140   -3.3267    0.4034 H       1  UNL1        0.0626
     90 H           8.1286    1.2265   -2.1382 H       1  UNL1        0.0683
     91 H           7.9582   -0.8954   -4.0483 H       1  UNL1        0.2102
     92 H          10.0003   -0.2589   -1.8635 H       1  UNL1        0.0648
     93 H           8.1235   -2.4169   -1.8063 H       1  UNL1        0.2100
     94 H           8.9913   -1.5632    0.3525 H       1  UNL1        0.0646
     95 H           9.4721    1.2390    0.0558 H       1  UNL1        0.2100
@<TRIPOS>BOND
     1     1     2    1
     2     1     3    1
     3     3     4    1
     4     4     5    1
     5     5     6    1
     6     6     7   ar
     7     7     8   ar
     8     8     9    1
     9     8    10   ar
    10    10    11   ar
    11    11    12    2
    12    11    13   ar
    13    13    14    1
    14    14    15    1
    15    15    16    1
    16    16    17    1
    17    17    18    1
    18    18    19    1
    19    19    20    1
    20    20    21    1
    21    20    22    2
    22    17    23    1
    23    23    24    1
    24    23    25    1
    25    25    26    1
    26    25    27    1
    27    27    28    1
    28    28    29    1
    29    29    30    1
    30    30    31    1
    31    31    32    1
    32    31    33    1
    33    33    34    1
    34    33    35    1
    35    35    36    1
    36    35    37    1
    37    37    38    1
    38    13    39   ar
    39    39    40   ar
    40    40    41   ar
    41    41    42   ar
    42    39    43    1
    43    43    44   ar
    44    44    45   ar
    45    45    46   ar
    46    46    47    1
    47    46    48   ar
    48    48    49   ar
    49     4    50    1
    50    50    51    1
    51    50    52    1
    52    52    53    1
    53    52    54    1
    54    54    55    1
    55    54     1    1
    56    42     6   ar
    57    49    43   ar
    58    41    10   ar
    59    27    15    1
    60    37    29    1
    61     1    56    1
    62     2    57    1
    63     2    58    1
    64     2    59    1
    65     4    60    1
    66     7    61    1
    67     9    62    1
    68    15    63    1
    69    17    64    1
    70    18    65    1
    71    18    66    1
    72    21    67    1
    73    23    68    1
    74    24    69    1
    75    25    70    1
    76    26    71    1
    77    27    72    1
    78    29    73    1
    79    31    74    1
    80    32    75    1
    81    32    76    1
    82    32    77    1
    83    33    78    1
    84    34    79    1
    85    35    80    1
    86    36    81    1
    87    37    82    1
    88    38    83    1
    89    42    84    1
    90    44    85    1
    91    45    86    1
    92    47    87    1
    93    48    88    1
    94    49    89    1
    95    50    90    1
    96    51    91    1
    97    52    92    1
    98    53    93    1
    99    54    94    1
   100    55    95    1
