@<TRIPOS>MOLECULE
6,8-Dihydroxykaempferol
 33 35 0 0 0
SMALL
GASTEIGER

@<TRIPOS>ATOM
      1 O           6.1908    1.3177    0.3562 O.3     1  UNL1       -0.5068
      2 C           4.8641    0.8934    0.3428 C.ar    1  UNL1        0.1169
      3 C           3.8683    1.7231    0.8665 C.ar    1  UNL1       -0.0195
      4 C           2.5326    1.3099    0.8602 C.ar    1  UNL1       -0.0475
      5 C           2.1788    0.0524    0.3430 C.ar    1  UNL1        0.0213
      6 C           3.1829   -0.7694   -0.2013 C.ar    1  UNL1       -0.0475
      7 C           4.5177   -0.3531   -0.1944 C.ar    1  UNL1       -0.0195
      8 C           0.7547   -0.3527    0.3246 C.ar    1  UNL1        0.1808
      9 C           0.3433   -1.6598    0.6428 C.ar    1  UNL1        0.2082
     10 O           1.2797   -2.6184    1.0389 O.3     1  UNL1       -0.5007
     11 C          -1.0230   -1.9724    0.5844 C.ar    1  UNL1        0.2381
     12 O          -1.4005   -3.1445    0.8568 O.2     1  UNL1       -0.2830
     13 C          -1.9551   -0.9728    0.2308 C.ar    1  UNL1        0.1165
     14 C          -1.4580    0.3214   -0.0486 C.ar    1  UNL1        0.1882
     15 O          -0.1529    0.5661    0.0109 O.2     1  UNL1       -0.4470
     16 C          -2.3374    1.3599   -0.3944 C.ar    1  UNL1        0.2062
     17 O          -1.8514    2.6400   -0.6684 O.3     1  UNL1       -0.5008
     18 C          -3.7171    1.1161   -0.4677 C.ar    1  UNL1        0.2081
     19 O          -4.6003    2.1413   -0.8112 O.3     1  UNL1       -0.5007
     20 C          -4.2210   -0.1659   -0.1952 C.ar    1  UNL1        0.2053
     21 O          -5.5930   -0.4145   -0.2677 O.3     1  UNL1       -0.5008
     22 C          -3.3479   -1.2118    0.1541 C.ar    1  UNL1        0.1770
     23 O          -3.8625   -2.4828    0.4238 O.3     1  UNL1       -0.5027
     24 H           6.9351    0.7401   -0.0171 H       1  UNL1        0.2921
     25 H           4.1294    2.6901    1.2773 H       1  UNL1        0.0654
     26 H           1.7755    1.9676    1.2700 H       1  UNL1        0.0626
     27 H           2.9354   -1.7205   -0.6549 H       1  UNL1        0.0626
     28 H           5.2804   -0.9961   -0.6150 H       1  UNL1        0.0654
     29 H           1.0167   -3.5654    1.2839 H       1  UNL1        0.2924
     30 H          -0.8647    2.8657   -0.6276 H       1  UNL1        0.2924
     31 H          -4.2855    3.0819   -1.0166 H       1  UNL1        0.2924
     32 H          -6.2625    0.3043   -0.5145 H       1  UNL1        0.2924
     33 H          -4.8527   -2.6909    0.3789 H       1  UNL1        0.2923
@<TRIPOS>BOND
     1     1     2    1
     2     2     3   ar
     3     3     4   ar
     4     4     5   ar
     5     5     6   ar
     6     6     7   ar
     7     5     8    1
     8     8     9   ar
     9     9    10    1
    10     9    11   ar
    11    11    12    2
    12    11    13   ar
    13    13    14   ar
    14    14    15   ar
    15    14    16   ar
    16    16    17    1
    17    16    18   ar
    18    18    19    1
    19    18    20   ar
    20    20    21    1
    21    20    22   ar
    22    22    23    1
    23     7     2   ar
    24    15     8   ar
    25    22    13   ar
    26     1    24    1
    27     3    25    1
    28     4    26    1
    29     6    27    1
    30     7    28    1
    31    10    29    1
    32    17    30    1
    33    19    31    1
    34    21    32    1
    35    23    33    1
