@<TRIPOS>MOLECULE
Isorhamnetin 3-O-galactoside
 56 59 0 0 0
SMALL
GASTEIGER

@<TRIPOS>ATOM
      1 C          -2.3296   -0.1829    1.5501 C.3     1  UNL1        0.1140
      2 C          -1.8207   -0.3310    2.9913 C.3     1  UNL1        0.0731
      3 O          -2.8722   -0.1879    3.9091 O.3     1  UNL1       -0.3924
      4 O          -1.2129   -0.2101    0.6811 O.3     1  UNL1       -0.3313
      5 C          -1.5937    0.1102   -0.6461 C.3     1  UNL1        0.2311
      6 O          -0.4287    0.1524   -1.4673 O.3     1  UNL1       -0.4532
      7 C           0.6169    1.0512   -1.2317 C.ar    1  UNL1        0.2138
      8 C           1.6401    0.7582   -0.3105 C.ar    1  UNL1        0.1810
      9 O           2.6029    1.6467   -0.0957 O.2     1  UNL1       -0.4507
     10 C           2.6672    2.8200   -0.7145 C.ar    1  UNL1        0.1465
     11 C           3.7450    3.6632   -0.4338 C.ar    1  UNL1        0.0231
     12 C           3.8646    4.8955   -1.0773 C.ar    1  UNL1        0.1239
     13 O           4.9483    5.7310   -0.8158 O.3     1  UNL1       -0.5065
     14 C           2.8875    5.3001   -1.9855 C.ar    1  UNL1        0.0223
     15 C           1.7757    4.4942   -2.2602 C.ar    1  UNL1        0.1348
     16 O           0.8126    5.0349   -3.1175 O.3     1  UNL1       -0.5058
     17 C           1.6708    3.2079   -1.6493 C.ar    1  UNL1        0.1092
     18 C           0.6501    2.2663   -1.9242 C.ar    1  UNL1        0.2382
     19 O          -0.2300    2.4787   -2.7985 O.2     1  UNL1       -0.2830
     20 C           1.6765   -0.5106    0.4516 C.ar    1  UNL1        0.0247
     21 C           1.3910   -1.7435   -0.1616 C.ar    1  UNL1       -0.0055
     22 C           1.3658   -2.9327    0.5939 C.ar    1  UNL1        0.1619
     23 O           1.0523   -4.1734    0.0161 O.3     1  UNL1       -0.4914
     24 C           0.7022   -4.3625   -1.3511 C.3     1  UNL1        0.0790
     25 C           1.6602   -2.8793    1.9683 C.ar    1  UNL1        0.1585
     26 O           1.6436   -4.0315    2.7542 O.3     1  UNL1       -0.5033
     27 C           1.9770   -1.6579    2.5693 C.ar    1  UNL1       -0.0159
     28 C           1.9900   -0.4823    1.8177 C.ar    1  UNL1       -0.0473
     29 C          -2.5468   -0.9586   -1.2086 C.3     1  UNL1        0.1454
     30 O          -2.9556   -0.5777   -2.4971 O.3     1  UNL1       -0.3829
     31 C          -3.7729   -1.1064   -0.2863 C.3     1  UNL1        0.1152
     32 O          -4.5589   -2.1988   -0.6895 O.3     1  UNL1       -0.3864
     33 C          -3.3211   -1.3060    1.1716 C.3     1  UNL1        0.1120
     34 O          -2.6979   -2.5588    1.3208 O.3     1  UNL1       -0.3865
     35 H          -2.8451    0.8049    1.4880 H       1  UNL1        0.0647
     36 H          -1.2934   -1.3040    3.1284 H       1  UNL1        0.0584
     37 H          -1.0772    0.4705    3.1896 H       1  UNL1        0.0584
     38 H          -3.2252   -1.0984    4.0872 H       1  UNL1        0.2095
     39 H          -2.0827    1.1122   -0.6836 H       1  UNL1        0.1084
     40 H           4.4995    3.3509    0.2779 H       1  UNL1        0.0691
     41 H           5.6743    5.4678   -0.1596 H       1  UNL1        0.2921
     42 H           2.9769    6.2682   -2.4633 H       1  UNL1        0.0691
     43 H          -0.1382    4.7091   -3.1982 H       1  UNL1        0.2922
     44 H           1.1919   -1.7721   -1.2236 H       1  UNL1        0.0662
     45 H           0.4902   -5.4371   -1.5254 H       1  UNL1        0.0660
     46 H           1.5441   -4.0558   -2.0070 H       1  UNL1        0.0660
     47 H          -0.2083   -3.7764   -1.5969 H       1  UNL1        0.0660
     48 H           1.4196   -4.9424    2.3722 H       1  UNL1        0.2923
     49 H           2.2050   -1.6189    3.6269 H       1  UNL1        0.0655
     50 H           2.2180    0.4556    2.3094 H       1  UNL1        0.0626
     51 H          -1.9955   -1.9285   -1.2502 H       1  UNL1        0.0683
     52 H          -3.2080   -1.4089   -2.9777 H       1  UNL1        0.2102
     53 H          -4.3783   -0.1688   -0.3326 H       1  UNL1        0.0648
     54 H          -5.1319   -1.8837   -1.4364 H       1  UNL1        0.2100
     55 H          -4.2167   -1.2375    1.8332 H       1  UNL1        0.0647
     56 H          -3.4184   -3.2253    1.4687 H       1  UNL1        0.2100
@<TRIPOS>BOND
     1     1     2    1
     2     2     3    1
     3     1     4    1
     4     4     5    1
     5     5     6    1
     6     6     7    1
     7     7     8   ar
     8     8     9   ar
     9     9    10   ar
    10    10    11   ar
    11    11    12   ar
    12    12    13    1
    13    12    14   ar
    14    14    15   ar
    15    15    16    1
    16    15    17   ar
    17    17    18   ar
    18    18    19    2
    19     8    20    1
    20    20    21   ar
    21    21    22   ar
    22    22    23    1
    23    23    24    1
    24    22    25   ar
    25    25    26    1
    26    25    27   ar
    27    27    28   ar
    28     5    29    1
    29    29    30    1
    30    29    31    1
    31    31    32    1
    32    31    33    1
    33    33    34    1
    34    33     1    1
    35    18     7   ar
    36    28    20   ar
    37    17    10   ar
    38     1    35    1
    39     2    36    1
    40     2    37    1
    41     3    38    1
    42     5    39    1
    43    11    40    1
    44    13    41    1
    45    14    42    1
    46    16    43    1
    47    21    44    1
    48    24    45    1
    49    24    46    1
    50    24    47    1
    51    26    48    1
    52    27    49    1
    53    28    50    1
    54    29    51    1
    55    30    52    1
    56    31    53    1
    57    32    54    1
    58    33    55    1
    59    34    56    1
