@<TRIPOS>MOLECULE
Quercetin 3-O-rhamnosyl-rhamnosyl-glucoside
 93 98 0 0 0
SMALL
GASTEIGER

@<TRIPOS>ATOM
      1 C           7.4461   -1.3371    1.5811 C.3     1  UNL1       -0.0361
      2 C           6.9479   -0.3000    0.5727 C.3     1  UNL1        0.0873
      3 O           6.5232   -0.9885   -0.5943 O.3     1  UNL1       -0.3431
      4 C           5.9278   -0.1125   -1.5392 C.3     1  UNL1        0.1883
      5 O           4.7818    0.5098   -0.9723 O.3     1  UNL1       -0.3402
      6 C           3.7793    0.7858   -1.9400 C.3     1  UNL1        0.1160
      7 C           2.7278   -0.3570   -1.9120 C.3     1  UNL1        0.0877
      8 C           1.8708   -0.4539   -3.1862 C.3     1  UNL1       -0.0361
      9 O           1.9436   -0.3508   -0.7271 O.3     1  UNL1       -0.3431
     10 C           1.2579    0.8775   -0.5286 C.3     1  UNL1        0.1879
     11 O           0.4748    0.7814    0.6462 O.3     1  UNL1       -0.3461
     12 C          -0.6545   -0.0355    0.4072 C.3     1  UNL1        0.0796
     13 C          -1.4472   -0.2472    1.7049 C.3     1  UNL1        0.1144
     14 O          -2.6701   -0.8681    1.3433 O.3     1  UNL1       -0.3313
     15 C          -3.4252   -1.2391    2.4786 C.3     1  UNL1        0.2311
     16 O          -4.7483   -1.5870    2.0708 O.3     1  UNL1       -0.4532
     17 C          -5.5734   -0.7012    1.3678 C.ar    1  UNL1        0.2138
     18 C          -5.4463   -0.5281   -0.0240 C.ar    1  UNL1        0.1810
     19 O          -6.1934    0.3777   -0.6435 O.2     1  UNL1       -0.4507
     20 C          -7.1105    1.1139   -0.0265 C.ar    1  UNL1        0.1465
     21 C          -7.8221    2.0565   -0.7725 C.ar    1  UNL1        0.0231
     22 C          -8.7871    2.8586   -0.1619 C.ar    1  UNL1        0.1239
     23 O          -9.4855    3.8138   -0.8973 O.3     1  UNL1       -0.5065
     24 C          -9.0633    2.6982    1.1952 C.ar    1  UNL1        0.0223
     25 C          -8.3919    1.7378    1.9619 C.ar    1  UNL1        0.1348
     26 O          -8.8086    1.5962    3.2889 O.3     1  UNL1       -0.5058
     27 C          -7.3618    0.9531    1.3619 C.ar    1  UNL1        0.1092
     28 C          -6.5339    0.0428    2.0615 C.ar    1  UNL1        0.2382
     29 O          -6.6068   -0.0930    3.3107 O.2     1  UNL1       -0.2830
     30 C          -4.4719   -1.2998   -0.8268 C.ar    1  UNL1        0.0247
     31 C          -3.6703   -0.6336   -1.7674 C.ar    1  UNL1       -0.0057
     32 C          -2.6772   -1.3263   -2.4752 C.ar    1  UNL1        0.1589
     33 O          -1.8569   -0.6486   -3.3758 O.3     1  UNL1       -0.5033
     34 C          -2.5037   -2.7045   -2.2652 C.ar    1  UNL1        0.1583
     35 O          -1.5217   -3.4202   -2.9492 O.3     1  UNL1       -0.5033
     36 C          -3.3253   -3.3766   -1.3548 C.ar    1  UNL1       -0.0159
     37 C          -4.3052   -2.6826   -0.6409 C.ar    1  UNL1       -0.0473
     38 C          -2.7818   -2.4612    3.1727 C.3     1  UNL1        0.1454
     39 O          -3.0920   -2.4181    4.5423 O.3     1  UNL1       -0.3829
     40 C          -1.2413   -2.4913    2.9724 C.3     1  UNL1        0.1152
     41 O          -0.8888   -3.3182    1.8876 O.3     1  UNL1       -0.3864
     42 C          -0.6771   -1.0602    2.8032 C.3     1  UNL1        0.1120
     43 O           0.7206   -1.0614    2.6313 O.3     1  UNL1       -0.3865
     44 C           2.2620    2.0234   -0.3440 C.3     1  UNL1        0.1341
     45 O           1.5703    3.2234   -0.1118 O.3     1  UNL1       -0.3841
     46 C           3.1524    2.1479   -1.5945 C.3     1  UNL1        0.1143
     47 O           2.4111    2.6253   -2.6897 O.3     1  UNL1       -0.3864
     48 C           6.9458    0.9470   -2.0275 C.3     1  UNL1        0.1341
     49 O           7.9351    0.3630   -2.8417 O.3     1  UNL1       -0.3841
     50 C           7.5706    1.6988   -0.8346 C.3     1  UNL1        0.1140
     51 O           8.6403    2.4984   -1.2689 O.3     1  UNL1       -0.3864
     52 C           8.0635    0.7160    0.2411 C.3     1  UNL1        0.1095
     53 O           8.4105    1.4266    1.4029 O.3     1  UNL1       -0.3866
     54 H           8.3168   -1.8920    1.1704 H       1  UNL1        0.0255
     55 H           6.6354   -2.0636    1.8020 H       1  UNL1        0.0255
     56 H           7.7422   -0.8476    2.5332 H       1  UNL1        0.0255
     57 H           6.0921    0.2280    1.0532 H       1  UNL1        0.0621
     58 H           5.6513   -0.7497   -2.4121 H       1  UNL1        0.0938
     59 H           4.1998    0.8745   -2.9711 H       1  UNL1        0.0650
     60 H           3.3019   -1.3089   -1.8901 H       1  UNL1        0.0621
     61 H           1.1245   -1.2683   -3.0720 H       1  UNL1        0.0255
     62 H           1.3331    0.4869   -3.4113 H       1  UNL1        0.0255
     63 H           2.5181   -0.6945   -4.0563 H       1  UNL1        0.0255
     64 H           0.6041    1.1251   -1.3981 H       1  UNL1        0.0937
     65 H          -1.3273    0.4692   -0.3231 H       1  UNL1        0.0587
     66 H          -0.3695   -1.0281   -0.0102 H       1  UNL1        0.0587
     67 H          -1.6712    0.7680    2.1072 H       1  UNL1        0.0647
     68 H          -3.4982   -0.3837    3.1924 H       1  UNL1        0.1084
     69 H          -7.6144    2.1723   -1.8293 H       1  UNL1        0.0691
     70 H          -9.3109    3.9536   -1.8857 H       1  UNL1        0.2921
     71 H          -9.8314    3.3079    1.6554 H       1  UNL1        0.0691
     72 H          -8.6276    0.7891    3.8660 H       1  UNL1        0.2922
     73 H          -3.7872    0.4326   -1.9199 H       1  UNL1        0.0662
     74 H          -1.9508    0.3479   -3.5336 H       1  UNL1        0.2923
     75 H          -0.9009   -2.9786   -3.6167 H       1  UNL1        0.2923
     76 H          -3.1983   -4.4397   -1.1943 H       1  UNL1        0.0655
     77 H          -4.9290   -3.2245    0.0585 H       1  UNL1        0.0626
     78 H          -3.2145   -3.3902    2.7291 H       1  UNL1        0.0683
     79 H          -2.9581   -3.3358    4.8973 H       1  UNL1        0.2102
     80 H          -0.7709   -2.9350    3.8775 H       1  UNL1        0.0648
     81 H          -1.3781   -3.0049    1.0843 H       1  UNL1        0.2100
     82 H          -0.8690   -0.5422    3.7694 H       1  UNL1        0.0647
     83 H           0.9417   -1.6670    1.8780 H       1  UNL1        0.2100
     84 H           2.9020    1.7867    0.5391 H       1  UNL1        0.0671
     85 H           2.2353    3.8723    0.2383 H       1  UNL1        0.2101
     86 H           3.9829    2.8612   -1.3748 H       1  UNL1        0.0648
     87 H           2.3504    3.6115   -2.5933 H       1  UNL1        0.2100
     88 H           6.4093    1.6926   -2.6527 H       1  UNL1        0.0671
     89 H           8.3519   -0.3825   -2.3375 H       1  UNL1        0.2101
     90 H           6.7861    2.3473   -0.3755 H       1  UNL1        0.0648
     91 H           8.2429    3.2696   -1.7519 H       1  UNL1        0.2100
     92 H           8.9523    0.1596   -0.1408 H       1  UNL1        0.0646
     93 H           9.3131    1.8101    1.2480 H       1  UNL1        0.2100
@<TRIPOS>BOND
     1     1     2    1
     2     2     3    1
     3     3     4    1
     4     4     5    1
     5     5     6    1
     6     6     7    1
     7     7     8    1
     8     7     9    1
     9     9    10    1
    10    10    11    1
    11    11    12    1
    12    12    13    1
    13    13    14    1
    14    14    15    1
    15    15    16    1
    16    16    17    1
    17    17    18   ar
    18    18    19   ar
    19    19    20   ar
    20    20    21   ar
    21    21    22   ar
    22    22    23    1
    23    22    24   ar
    24    24    25   ar
    25    25    26    1
    26    25    27   ar
    27    27    28   ar
    28    28    29    2
    29    18    30    1
    30    30    31   ar
    31    31    32   ar
    32    32    33    1
    33    32    34   ar
    34    34    35    1
    35    34    36   ar
    36    36    37   ar
    37    15    38    1
    38    38    39    1
    39    38    40    1
    40    40    41    1
    41    40    42    1
    42    42    43    1
    43    10    44    1
    44    44    45    1
    45    44    46    1
    46    46    47    1
    47     4    48    1
    48    48    49    1
    49    48    50    1
    50    50    51    1
    51    50    52    1
    52    52    53    1
    53    52     2    1
    54    46     6    1
    55    42    13    1
    56    28    17   ar
    57    37    30   ar
    58    27    20   ar
    59     1    54    1
    60     1    55    1
    61     1    56    1
    62     2    57    1
    63     4    58    1
    64     6    59    1
    65     7    60    1
    66     8    61    1
    67     8    62    1
    68     8    63    1
    69    10    64    1
    70    12    65    1
    71    12    66    1
    72    13    67    1
    73    15    68    1
    74    21    69    1
    75    23    70    1
    76    24    71    1
    77    26    72    1
    78    31    73    1
    79    33    74    1
    80    35    75    1
    81    36    76    1
    82    37    77    1
    83    38    78    1
    84    39    79    1
    85    40    80    1
    86    41    81    1
    87    42    82    1
    88    43    83    1
    89    44    84    1
    90    45    85    1
    91    46    86    1
    92    47    87    1
    93    48    88    1
    94    49    89    1
    95    50    90    1
    96    51    91    1
    97    52    92    1
    98    53    93    1
