@<TRIPOS>MOLECULE
Kaempferol 3-O-rhamnosyl-rhamnosyl-glucoside
 92 97 0 0 0
SMALL
GASTEIGER

@<TRIPOS>ATOM
      1 C           2.7054   -2.3433    2.4049 C.3     1  UNL1        0.0873
      2 C           1.7718   -3.0736    3.3699 C.3     1  UNL1       -0.0361
      3 O           2.3028   -2.6224    1.0775 O.3     1  UNL1       -0.3431
      4 C           2.9205   -1.7288    0.1541 C.3     1  UNL1        0.1883
      5 O           2.2643   -0.4730    0.1654 O.3     1  UNL1       -0.3460
      6 C           0.9640   -0.5833   -0.3770 C.3     1  UNL1        0.0796
      7 C           0.3128    0.8066   -0.4595 C.3     1  UNL1        0.1144
      8 O          -0.9523    0.6804   -1.1065 O.3     1  UNL1       -0.3313
      9 C          -2.0878    0.9792   -0.3082 C.3     1  UNL1        0.2311
     10 O          -3.2279    0.4293   -0.9710 O.3     1  UNL1       -0.4532
     11 C          -4.5471    0.8338   -0.7262 C.ar    1  UNL1        0.2138
     12 C          -5.4631   -0.0681   -0.1590 C.ar    1  UNL1        0.1809
     13 O          -6.6881    0.3423    0.1453 O.2     1  UNL1       -0.4507
     14 C          -7.1302    1.5697   -0.1007 C.ar    1  UNL1        0.1465
     15 C          -8.4299    1.9001    0.2900 C.ar    1  UNL1        0.0231
     16 C          -8.9332    3.1780    0.0619 C.ar    1  UNL1        0.1239
     17 O         -10.2254    3.4919    0.4775 O.3     1  UNL1       -0.5065
     18 C          -8.1428    4.1291   -0.5875 C.ar    1  UNL1        0.0223
     19 C          -6.8483    3.8184   -1.0223 C.ar    1  UNL1        0.1348
     20 O          -6.1773    4.8161   -1.7360 O.3     1  UNL1       -0.5058
     21 C          -6.3024    2.5285   -0.7426 C.ar    1  UNL1        0.1092
     22 C          -4.9721    2.1364   -1.0299 C.ar    1  UNL1        0.2382
     23 O          -4.1475    2.9348   -1.5449 O.2     1  UNL1       -0.2830
     24 C          -5.0876   -1.4627    0.1673 C.ar    1  UNL1        0.0213
     25 C          -4.3360   -2.2487   -0.7254 C.ar    1  UNL1       -0.0475
     26 C          -3.9842   -3.5591   -0.3890 C.ar    1  UNL1       -0.0195
     27 C          -4.3903   -4.1049    0.8355 C.ar    1  UNL1        0.1169
     28 O          -4.0426   -5.4083    1.1828 O.3     1  UNL1       -0.5068
     29 C          -5.1557   -3.3360    1.7172 C.ar    1  UNL1       -0.0195
     30 C          -5.5088   -2.0251    1.3836 C.ar    1  UNL1       -0.0475
     31 C          -1.9761    0.3784    1.1160 C.3     1  UNL1        0.1454
     32 O          -3.1440    0.6068    1.8654 O.3     1  UNL1       -0.3829
     33 C          -0.7428    0.9234    1.8738 C.3     1  UNL1        0.1152
     34 O          -0.1616   -0.1206    2.6141 O.3     1  UNL1       -0.3864
     35 C           0.2955    1.5411    0.9131 C.3     1  UNL1        0.1120
     36 O          -0.0065    2.9005    0.7173 O.3     1  UNL1       -0.3865
     37 C           4.4391   -1.5102    0.4349 C.3     1  UNL1        0.1406
     38 O           5.1774   -1.4620   -0.7794 O.3     1  UNL1       -0.3378
     39 C           5.2798   -0.1418   -1.2852 C.3     1  UNL1        0.1884
     40 O           4.0268    0.2424   -1.8309 O.3     1  UNL1       -0.3431
     41 C           4.0239    1.5745   -2.3234 C.3     1  UNL1        0.0873
     42 C           4.0311    2.6201   -1.1944 C.3     1  UNL1       -0.0361
     43 C           5.1029    1.8089   -3.4108 C.3     1  UNL1        0.1095
     44 O           4.7021    1.1509   -4.5868 O.3     1  UNL1       -0.3866
     45 C           6.4863    1.2853   -2.9764 C.3     1  UNL1        0.1140
     46 O           7.0555    2.1701   -2.0436 O.3     1  UNL1       -0.3864
     47 C           6.3589   -0.1276   -2.3818 C.3     1  UNL1        0.1341
     48 O           7.5978   -0.5299   -1.8544 O.3     1  UNL1       -0.3841
     49 C           4.9870   -2.6572    1.2986 C.3     1  UNL1        0.1143
     50 O           4.9101   -3.8607    0.5753 O.3     1  UNL1       -0.3864
     51 C           4.1786   -2.7761    2.6171 C.3     1  UNL1        0.1095
     52 O           4.7529   -1.9629    3.6088 O.3     1  UNL1       -0.3866
     53 H           2.5973   -1.2527    2.6188 H       1  UNL1        0.0621
     54 H           1.8055   -4.1695    3.1901 H       1  UNL1        0.0255
     55 H           0.7284   -2.7240    3.2203 H       1  UNL1        0.0255
     56 H           2.0671   -2.8664    4.4206 H       1  UNL1        0.0255
     57 H           2.8461   -2.1986   -0.8544 H       1  UNL1        0.0937
     58 H           0.3343   -1.2538    0.2464 H       1  UNL1        0.0587
     59 H           1.0042   -0.9973   -1.4109 H       1  UNL1        0.0587
     60 H           0.9585    1.4070   -1.1370 H       1  UNL1        0.0647
     61 H          -2.1967    2.0827   -0.2445 H       1  UNL1        0.1084
     62 H          -9.0485    1.1610    0.7844 H       1  UNL1        0.0691
     63 H         -10.6226    4.4116    0.3248 H       1  UNL1        0.2921
     64 H          -8.5473    5.1146   -0.7832 H       1  UNL1        0.0691
     65 H          -5.3792    4.6641   -2.3330 H       1  UNL1        0.2922
     66 H          -4.0355   -1.8584   -1.6892 H       1  UNL1        0.0626
     67 H          -3.4014   -4.1512   -1.0831 H       1  UNL1        0.0654
     68 H          -3.4892   -5.9909    0.5654 H       1  UNL1        0.2921
     69 H          -5.4760   -3.7543    2.6630 H       1  UNL1        0.0654
     70 H          -6.0955   -1.4426    2.0835 H       1  UNL1        0.0626
     71 H          -1.8736   -0.7226    0.9947 H       1  UNL1        0.0683
     72 H          -3.3046    1.5868    1.8812 H       1  UNL1        0.2102
     73 H          -1.0732    1.7206    2.5823 H       1  UNL1        0.0648
     74 H           0.4140    0.2983    3.3065 H       1  UNL1        0.2100
     75 H           1.3020    1.4781    1.3897 H       1  UNL1        0.0647
     76 H           0.8071    3.3277    0.3408 H       1  UNL1        0.2100
     77 H           4.5670   -0.5841    1.0467 H       1  UNL1        0.0675
     78 H           5.6091    0.5517   -0.4779 H       1  UNL1        0.0938
     79 H           3.0415    1.7124   -2.8270 H       1  UNL1        0.0621
     80 H           5.0165    2.7019   -0.6971 H       1  UNL1        0.0255
     81 H           3.7713    3.6187   -1.6055 H       1  UNL1        0.0255
     82 H           3.2722    2.3506   -0.4299 H       1  UNL1        0.0255
     83 H           5.1729    2.9040   -3.6145 H       1  UNL1        0.0646
     84 H           5.2048    1.5646   -5.3366 H       1  UNL1        0.2100
     85 H           7.1408    1.2352   -3.8793 H       1  UNL1        0.0648
     86 H           8.0391    2.0398   -2.0788 H       1  UNL1        0.2100
     87 H           6.0531   -0.8237   -3.1994 H       1  UNL1        0.0671
     88 H           7.5911   -1.5222   -1.8217 H       1  UNL1        0.2101
     89 H           6.0565   -2.4371    1.5297 H       1  UNL1        0.0648
     90 H           5.5344   -4.4982    1.0108 H       1  UNL1        0.2100
     91 H           4.2089   -3.8402    2.9541 H       1  UNL1        0.0646
     92 H           5.5637   -2.4346    3.9348 H       1  UNL1        0.2100
@<TRIPOS>BOND
     1     1     2    1
     2     1     3    1
     3     3     4    1
     4     4     5    1
     5     5     6    1
     6     6     7    1
     7     7     8    1
     8     8     9    1
     9     9    10    1
    10    10    11    1
    11    11    12   ar
    12    12    13   ar
    13    13    14   ar
    14    14    15   ar
    15    15    16   ar
    16    16    17    1
    17    16    18   ar
    18    18    19   ar
    19    19    20    1
    20    19    21   ar
    21    21    22   ar
    22    22    23    2
    23    12    24    1
    24    24    25   ar
    25    25    26   ar
    26    26    27   ar
    27    27    28    1
    28    27    29   ar
    29    29    30   ar
    30     9    31    1
    31    31    32    1
    32    31    33    1
    33    33    34    1
    34    33    35    1
    35    35    36    1
    36     4    37    1
    37    37    38    1
    38    38    39    1
    39    39    40    1
    40    40    41    1
    41    41    42    1
    42    41    43    1
    43    43    44    1
    44    43    45    1
    45    45    46    1
    46    45    47    1
    47    47    48    1
    48    37    49    1
    49    49    50    1
    50    49    51    1
    51    51    52    1
    52    51     1    1
    53    35     7    1
    54    47    39    1
    55    22    11   ar
    56    30    24   ar
    57    21    14   ar
    58     1    53    1
    59     2    54    1
    60     2    55    1
    61     2    56    1
    62     4    57    1
    63     6    58    1
    64     6    59    1
    65     7    60    1
    66     9    61    1
    67    15    62    1
    68    17    63    1
    69    18    64    1
    70    20    65    1
    71    25    66    1
    72    26    67    1
    73    28    68    1
    74    29    69    1
    75    30    70    1
    76    31    71    1
    77    32    72    1
    78    33    73    1
    79    34    74    1
    80    35    75    1
    81    36    76    1
    82    37    77    1
    83    39    78    1
    84    41    79    1
    85    42    80    1
    86    42    81    1
    87    42    82    1
    88    43    83    1
    89    44    84    1
    90    45    85    1
    91    46    86    1
    92    47    87    1
    93    48    88    1
    94    49    89    1
    95    50    90    1
    96    51    91    1
    97    52    92    1
