@<TRIPOS>MOLECULE
Cyanidin 3-O-arabinoside
 49 52 0 0 0
SMALL
GASTEIGER

@<TRIPOS>ATOM
      1 C           3.6390   -0.6421   -0.6485 C.3     1  UNL1        0.1141
      2 C           4.0996    0.5510   -1.4915 C.3     1  UNL1        0.0731
      3 O           4.0480    0.2145   -2.8500 O.3     1  UNL1       -0.3924
      4 O           2.3121   -0.9870   -0.9773 O.3     1  UNL1       -0.3313
      5 C           1.7837   -1.6382    0.1564 C.3     1  UNL1        0.2312
      6 O           0.3763   -1.4002    0.2942 O.3     1  UNL1       -0.4515
      7 C          -0.3320   -0.2006    0.0811 C.ar    1  UNL1        0.2288
      8 C           0.3032    1.0317   -0.1432 C.ar    1  UNL1        0.0093
      9 C          -0.4565    2.1958   -0.3004 C.ar    1  UNL1        0.1241
     10 C          -1.8598    2.0900   -0.2233 C.ar    1  UNL1        0.3708
     11 C          -2.6562    3.2305   -0.3653 C.ar    1  UNL1        0.0847
     12 C          -2.0664    4.4790   -0.5839 C.ar    1  UNL1        0.1293
     13 O          -2.8750    5.6047   -0.7236 O.3     1  UNL1       -0.5063
     14 C          -0.6712    4.5886   -0.6603 C.ar    1  UNL1        0.0225
     15 C           0.1398    3.4529   -0.5186 C.ar    1  UNL1        0.1366
     16 O           1.5278    3.5746   -0.5948 O.3     1  UNL1       -0.5057
     17 O          -2.4322    0.9102   -0.0158 O.2     1  UNL1       -0.1997
     18 C          -1.7431   -0.2204    0.1248 C.ar    1  UNL1        0.4046
     19 C          -2.5014   -1.4733    0.3403 C.ar    1  UNL1        0.0865
     20 C          -2.1726   -2.6552   -0.3477 C.ar    1  UNL1       -0.0003
     21 C          -2.9138   -3.8255   -0.1479 C.ar    1  UNL1        0.1591
     22 O          -2.5548   -4.9810   -0.8412 O.3     1  UNL1       -0.5033
     23 C          -4.0045   -3.8197    0.7377 C.ar    1  UNL1        0.1583
     24 O          -4.7441   -4.9831    0.9442 O.3     1  UNL1       -0.5033
     25 C          -4.3478   -2.6383    1.4083 C.ar    1  UNL1       -0.0157
     26 C          -3.6066   -1.4716    1.2051 C.ar    1  UNL1       -0.0418
     27 C           2.6011   -1.2527    1.3985 C.3     1  UNL1        0.1454
     28 O           1.8349   -0.6563    2.4191 O.3     1  UNL1       -0.3829
     29 C           3.6874   -0.3440    0.8510 C.3     1  UNL1        0.1152
     30 O           4.9361   -0.6816    1.3970 O.3     1  UNL1       -0.3864
     31 H           4.2978   -1.5118   -0.8793 H       1  UNL1        0.0647
     32 H           5.1445    0.8165   -1.2157 H       1  UNL1        0.0584
     33 H           3.4458    1.4306   -1.3005 H       1  UNL1        0.0584
     34 H           4.3519    1.0194   -3.3448 H       1  UNL1        0.2095
     35 H           1.9044   -2.7328   -0.0032 H       1  UNL1        0.1084
     36 H           1.3760    1.1001   -0.1593 H       1  UNL1        0.0667
     37 H          -3.7344    3.1472   -0.3059 H       1  UNL1        0.0749
     38 H          -2.4800    6.5242   -0.8828 H       1  UNL1        0.2921
     39 H          -0.2169    5.5569   -0.8291 H       1  UNL1        0.0691
     40 H           1.9752    4.4700   -0.7520 H       1  UNL1        0.2922
     41 H          -1.3558   -2.6678   -1.0585 H       1  UNL1        0.0664
     42 H          -3.0600   -5.8523   -0.7330 H       1  UNL1        0.2923
     43 H          -5.5356   -5.0035    1.5767 H       1  UNL1        0.2923
     44 H          -5.1907   -2.6229    2.0874 H       1  UNL1        0.0655
     45 H          -3.8882   -0.5689    1.7337 H       1  UNL1        0.0628
     46 H           3.0620   -2.1760    1.8172 H       1  UNL1        0.0683
     47 H           1.5431    0.2405    2.1175 H       1  UNL1        0.2102
     48 H           3.4503    0.7268    1.0546 H       1  UNL1        0.0648
     49 H           5.5591    0.0512    1.1525 H       1  UNL1        0.2100
@<TRIPOS>UNITY_ATOM_ATTR
17 1
charge 1
@<TRIPOS>BOND
     1     1     2    1
     2     2     3    1
     3     1     4    1
     4     4     5    1
     5     5     6    1
     6     6     7    1
     7     7     8   ar
     8     8     9   ar
     9     9    10   ar
    10    10    11   ar
    11    11    12   ar
    12    12    13    1
    13    12    14   ar
    14    14    15   ar
    15    15    16    1
    16    10    17   ar
    17    17    18   ar
    18    18    19    1
    19    19    20   ar
    20    20    21   ar
    21    21    22    1
    22    21    23   ar
    23    23    24    1
    24    23    25   ar
    25    25    26   ar
    26     5    27    1
    27    27    28    1
    28    27    29    1
    29    29    30    1
    30    29     1    1
    31    18     7   ar
    32    26    19   ar
    33    15     9   ar
    34     1    31    1
    35     2    32    1
    36     2    33    1
    37     3    34    1
    38     5    35    1
    39     8    36    1
    40    11    37    1
    41    13    38    1
    42    14    39    1
    43    16    40    1
    44    20    41    1
    45    22    42    1
    46    24    43    1
    47    25    44    1
    48    26    45    1
    49    27    46    1
    50    28    47    1
    51    29    48    1
    52    30    49    1
