@<TRIPOS>MOLECULE
Methylgalangin
 33 35 0 0 0
SMALL
GASTEIGER

@<TRIPOS>ATOM
      1 C          -1.5129    3.3742   -0.1370 C.3     1  UNL1        0.0791
      2 O          -1.5206    1.9506   -0.1214 O.3     1  UNL1       -0.4883
      3 C          -0.3951    1.1032   -0.0664 C.ar    1  UNL1        0.2107
      4 C          -0.6125   -0.2865    0.0021 C.ar    1  UNL1        0.1808
      5 O           0.4154   -1.1247   -0.0305 O.2     1  UNL1       -0.4507
      6 C           1.6802   -0.7308   -0.0720 C.ar    1  UNL1        0.1465
      7 C           2.6806   -1.7045   -0.1290 C.ar    1  UNL1        0.0231
      8 C           4.0225   -1.3364   -0.1842 C.ar    1  UNL1        0.1239
      9 O           5.0032   -2.3228   -0.2633 O.3     1  UNL1       -0.5065
     10 C           4.3725    0.0154   -0.1491 C.ar    1  UNL1        0.0223
     11 C           3.3931    1.0116   -0.0524 C.ar    1  UNL1        0.1348
     12 O           3.8507    2.3255    0.0834 O.3     1  UNL1       -0.5058
     13 C           2.0126    0.6468   -0.0641 C.ar    1  UNL1        0.1092
     14 C           0.9399    1.5704   -0.1141 C.ar    1  UNL1        0.2381
     15 O           1.1644    2.8001   -0.2478 O.2     1  UNL1       -0.2830
     16 C          -1.9734   -0.8645    0.0828 C.ar    1  UNL1        0.0211
     17 C          -2.9399   -0.3415    0.9623 C.ar    1  UNL1       -0.0510
     18 C          -4.2106   -0.9202    1.0396 C.ar    1  UNL1       -0.0611
     19 C          -4.5239   -2.0312    0.2526 C.ar    1  UNL1       -0.0617
     20 C          -3.5642   -2.5708   -0.6073 C.ar    1  UNL1       -0.0611
     21 C          -2.2920   -1.9959   -0.6876 C.ar    1  UNL1       -0.0510
     22 H          -2.5606    3.7380   -0.1218 H       1  UNL1        0.0660
     23 H          -1.0310    3.7461   -1.0654 H       1  UNL1        0.0660
     24 H          -0.9948    3.7661    0.7634 H       1  UNL1        0.0660
     25 H           2.4117   -2.7537   -0.1429 H       1  UNL1        0.0691
     26 H           5.9884   -2.0888   -0.3019 H       1  UNL1        0.2921
     27 H           5.4184    0.2967   -0.1629 H       1  UNL1        0.0691
     28 H           3.3072    3.0836    0.4684 H       1  UNL1        0.2922
     29 H          -2.7072    0.4978    1.6052 H       1  UNL1        0.0625
     30 H          -4.9500   -0.5121    1.7165 H       1  UNL1        0.0618
     31 H          -5.5075   -2.4786    0.3150 H       1  UNL1        0.0618
     32 H          -3.8054   -3.4362   -1.2109 H       1  UNL1        0.0618
     33 H          -1.5594   -2.4267   -1.3593 H       1  UNL1        0.0625
@<TRIPOS>BOND
     1     1     2    1
     2     2     3    1
     3     3     4   ar
     4     4     5   ar
     5     5     6   ar
     6     6     7   ar
     7     7     8   ar
     8     8     9    1
     9     8    10   ar
    10    10    11   ar
    11    11    12    1
    12    11    13   ar
    13    13    14   ar
    14    14    15    2
    15     4    16    1
    16    16    17   ar
    17    17    18   ar
    18    18    19   ar
    19    19    20   ar
    20    20    21   ar
    21    14     3   ar
    22    21    16   ar
    23    13     6   ar
    24     1    22    1
    25     1    23    1
    26     1    24    1
    27     7    25    1
    28     9    26    1
    29    10    27    1
    30    12    28    1
    31    17    29    1
    32    18    30    1
    33    19    31    1
    34    20    32    1
    35    21    33    1
