@<TRIPOS>MOLECULE
Kaempferol 3,7,4'-O-triglucoside
 94 99 0 0 0
SMALL
GASTEIGER

@<TRIPOS>ATOM
      1 C          -6.9263   -2.4499    0.8473 C.3     1  UNL1        0.1140
      2 C          -5.6253   -3.2722    0.7173 C.3     1  UNL1        0.0731
      3 O          -5.7235   -4.4705    1.4404 O.3     1  UNL1       -0.3924
      4 O          -6.7510   -1.0859    0.4773 O.3     1  UNL1       -0.3313
      5 C          -6.7309   -0.8542   -0.9259 C.3     1  UNL1        0.2308
      6 O          -5.5544   -1.3905   -1.5350 O.3     1  UNL1       -0.4608
      7 C          -4.2437   -0.9605   -1.2751 C.ar    1  UNL1        0.1240
      8 C          -3.9507    0.0796   -0.3733 C.ar    1  UNL1       -0.0192
      9 C          -2.6262    0.4624   -0.1459 C.ar    1  UNL1       -0.0475
     10 C          -1.5738   -0.1721   -0.8283 C.ar    1  UNL1        0.0213
     11 C          -1.8681   -1.2232   -1.7094 C.ar    1  UNL1       -0.0475
     12 C          -3.1929   -1.6068   -1.9349 C.ar    1  UNL1       -0.0192
     13 C          -0.1637    0.2111   -0.5917 C.ar    1  UNL1        0.1809
     14 C           0.2416    1.5580   -0.5512 C.ar    1  UNL1        0.2138
     15 O          -0.7334    2.5462   -0.7989 O.3     1  UNL1       -0.4532
     16 C          -0.6116    3.9560   -0.6166 C.3     1  UNL1        0.2311
     17 O          -0.3221    4.2128    0.7518 O.3     1  UNL1       -0.3313
     18 C          -0.4297    5.5947    1.0331 C.3     1  UNL1        0.1140
     19 C           0.2467    5.8748    2.3792 C.3     1  UNL1        0.0731
     20 O           0.2167    7.2475    2.6583 O.3     1  UNL1       -0.3924
     21 C          -1.9239    6.0173    1.0452 C.3     1  UNL1        0.1120
     22 O          -2.0246    7.3525    0.6181 O.3     1  UNL1       -0.3865
     23 C          -2.7690    5.1002    0.1264 C.3     1  UNL1        0.1152
     24 O          -3.2121    3.9887    0.8650 O.3     1  UNL1       -0.3864
     25 C          -1.9410    4.6244   -1.0827 C.3     1  UNL1        0.1454
     26 O          -1.6665    5.7262   -1.9109 O.3     1  UNL1       -0.3829
     27 C           1.6044    1.8401   -0.2956 C.ar    1  UNL1        0.2382
     28 O           1.9812    3.0327   -0.1763 O.2     1  UNL1       -0.2830
     29 C           2.5296    0.7762   -0.1513 C.ar    1  UNL1        0.1092
     30 C           3.9319    0.9451    0.0565 C.ar    1  UNL1        0.1348
     31 O           4.5873    2.1791    0.0007 O.3     1  UNL1       -0.5058
     32 C           4.7357   -0.1740    0.3061 C.ar    1  UNL1        0.0226
     33 C           4.2015   -1.4718    0.2828 C.ar    1  UNL1        0.1310
     34 O           4.9819   -2.6167    0.5095 O.3     1  UNL1       -0.4606
     35 C           6.3881   -2.6130    0.7534 C.3     1  UNL1        0.2308
     36 O           7.0579   -2.1470   -0.4020 O.3     1  UNL1       -0.3313
     37 C           8.4062   -1.8359   -0.0914 C.3     1  UNL1        0.1140
     38 C           9.0874   -1.3399   -1.3744 C.3     1  UNL1        0.0731
     39 O          10.3404   -0.7783   -1.0819 O.3     1  UNL1       -0.3924
     40 C           9.1640   -3.0584    0.5297 C.3     1  UNL1        0.1120
     41 O           9.6577   -2.7361    1.8072 O.3     1  UNL1       -0.3865
     42 C           8.2856   -4.3346    0.5925 C.3     1  UNL1        0.1152
     43 O           8.2641   -4.9772   -0.6604 O.3     1  UNL1       -0.3864
     44 C           6.8432   -4.0519    1.0893 C.3     1  UNL1        0.1454
     45 O           6.7764   -4.2590    2.4774 O.3     1  UNL1       -0.3829
     46 C           2.8443   -1.6421    0.0190 C.ar    1  UNL1        0.0235
     47 C           2.0109   -0.5414   -0.1903 C.ar    1  UNL1        0.1465
     48 O           0.7228   -0.7592   -0.4144 O.2     1  UNL1       -0.4507
     49 C          -7.9930   -1.3736   -1.6320 C.3     1  UNL1        0.1454
     50 O          -9.0985   -0.6142   -1.2122 O.3     1  UNL1       -0.3829
     51 C          -8.2217   -2.8611   -1.3283 C.3     1  UNL1        0.1152
     52 O          -7.2634   -3.6340   -2.0049 O.3     1  UNL1       -0.3864
     53 C          -8.1629   -3.1184    0.1878 C.3     1  UNL1        0.1120
     54 O          -9.3373   -2.6187    0.7776 O.3     1  UNL1       -0.3865
     55 H          -7.1366   -2.4290    1.9394 H       1  UNL1        0.0647
     56 H          -5.4140   -3.5299   -0.3372 H       1  UNL1        0.0584
     57 H          -4.7644   -2.6727    1.0924 H       1  UNL1        0.0584
     58 H          -5.5823   -4.2409    2.3960 H       1  UNL1        0.2095
     59 H          -6.7185    0.2465   -1.0841 H       1  UNL1        0.1084
     60 H          -4.7349    0.5921    0.1659 H       1  UNL1        0.0654
     61 H          -2.4241    1.2401    0.5794 H       1  UNL1        0.0626
     62 H          -1.0722   -1.7388   -2.2331 H       1  UNL1        0.0626
     63 H          -3.4050   -2.4144   -2.6241 H       1  UNL1        0.0654
     64 H           0.2213    4.3213   -1.2585 H       1  UNL1        0.1084
     65 H           0.1260    6.1860    0.2649 H       1  UNL1        0.0647
     66 H          -0.2692    5.3096    3.1881 H       1  UNL1        0.0584
     67 H           1.3043    5.5306    2.3302 H       1  UNL1        0.0584
     68 H           0.6604    7.3588    3.5389 H       1  UNL1        0.2095
     69 H          -2.3276    5.9343    2.0832 H       1  UNL1        0.0647
     70 H          -2.9079    7.6881    0.9233 H       1  UNL1        0.2100
     71 H          -3.6577    5.6679   -0.2382 H       1  UNL1        0.0648
     72 H          -3.9500    3.5724    0.3470 H       1  UNL1        0.2100
     73 H          -2.5578    3.8917   -1.6562 H       1  UNL1        0.0683
     74 H          -1.3916    5.3607   -2.7924 H       1  UNL1        0.2102
     75 H           4.2301    3.0001   -0.4642 H       1  UNL1        0.2922
     76 H           5.7904   -0.0173    0.4863 H       1  UNL1        0.0691
     77 H           6.5824   -1.9483    1.6294 H       1  UNL1        0.1084
     78 H           8.4232   -0.9761    0.6194 H       1  UNL1        0.0647
     79 H           8.4558   -0.5497   -1.8342 H       1  UNL1        0.0584
     80 H           9.1725   -2.1683   -2.1165 H       1  UNL1        0.0584
     81 H          11.0230   -1.4763   -1.2591 H       1  UNL1        0.2095
     82 H          10.0511   -3.3147   -0.0896 H       1  UNL1        0.0647
     83 H           8.8813   -2.5350    2.3913 H       1  UNL1        0.2100
     84 H           8.7687   -5.0473    1.2975 H       1  UNL1        0.0648
     85 H           7.8217   -4.3719   -1.3097 H       1  UNL1        0.2100
     86 H           6.1635   -4.7807    0.5862 H       1  UNL1        0.0683
     87 H           5.8134   -4.3160    2.7130 H       1  UNL1        0.2102
     88 H           2.4281   -2.6419   -0.0085 H       1  UNL1        0.0691
     89 H          -7.8557   -1.2423   -2.7316 H       1  UNL1        0.0683
     90 H          -9.8183   -0.7591   -1.8807 H       1  UNL1        0.2102
     91 H          -9.2339   -3.1426   -1.7045 H       1  UNL1        0.0648
     92 H          -7.5951   -4.5698   -2.0061 H       1  UNL1        0.2100
     93 H          -8.1237   -4.2214    0.3514 H       1  UNL1        0.0647
     94 H          -9.4428   -3.0791    1.6512 H       1  UNL1        0.2100
@<TRIPOS>BOND
     1     1     2    1
     2     2     3    1
     3     1     4    1
     4     4     5    1
     5     5     6    1
     6     6     7    1
     7     7     8   ar
     8     8     9   ar
     9     9    10   ar
    10    10    11   ar
    11    11    12   ar
    12    10    13    1
    13    13    14   ar
    14    14    15    1
    15    15    16    1
    16    16    17    1
    17    17    18    1
    18    18    19    1
    19    19    20    1
    20    18    21    1
    21    21    22    1
    22    21    23    1
    23    23    24    1
    24    23    25    1
    25    25    26    1
    26    14    27   ar
    27    27    28    2
    28    27    29   ar
    29    29    30   ar
    30    30    31    1
    31    30    32   ar
    32    32    33   ar
    33    33    34    1
    34    34    35    1
    35    35    36    1
    36    36    37    1
    37    37    38    1
    38    38    39    1
    39    37    40    1
    40    40    41    1
    41    40    42    1
    42    42    43    1
    43    42    44    1
    44    44    45    1
    45    33    46   ar
    46    46    47   ar
    47    47    48   ar
    48     5    49    1
    49    49    50    1
    50    49    51    1
    51    51    52    1
    52    51    53    1
    53    53    54    1
    54    53     1    1
    55    12     7   ar
    56    48    13   ar
    57    25    16    1
    58    47    29   ar
    59    44    35    1
    60     1    55    1
    61     2    56    1
    62     2    57    1
    63     3    58    1
    64     5    59    1
    65     8    60    1
    66     9    61    1
    67    11    62    1
    68    12    63    1
    69    16    64    1
    70    18    65    1
    71    19    66    1
    72    19    67    1
    73    20    68    1
    74    21    69    1
    75    22    70    1
    76    23    71    1
    77    24    72    1
    78    25    73    1
    79    26    74    1
    80    31    75    1
    81    32    76    1
    82    35    77    1
    83    37    78    1
    84    38    79    1
    85    38    80    1
    86    39    81    1
    87    40    82    1
    88    41    83    1
    89    42    84    1
    90    43    85    1
    91    44    86    1
    92    45    87    1
    93    46    88    1
    94    49    89    1
    95    50    90    1
    96    51    91    1
    97    52    92    1
    98    53    93    1
    99    54    94    1
