@<TRIPOS>MOLECULE
3-Methoxynobiletin
 55 57 0 0 0
SMALL
GASTEIGER

@<TRIPOS>ATOM
      1 C           6.2547    0.0110   -3.6312 C.3     1  UNL1        0.0790
      2 O           5.9724    0.0930   -2.2379 O.3     1  UNL1       -0.4915
      3 C           4.6955   -0.0610   -1.6750 C.ar    1  UNL1        0.1615
      4 C           4.5631    0.0463   -0.2819 C.ar    1  UNL1        0.1622
      5 O           5.7143    0.3070    0.4784 O.3     1  UNL1       -0.4914
      6 C           5.7342    0.4296    1.8970 C.3     1  UNL1        0.0790
      7 C           3.2943   -0.1051    0.3112 C.ar    1  UNL1       -0.0055
      8 C           2.1638   -0.3787   -0.4765 C.ar    1  UNL1        0.0247
      9 C           2.3043   -0.4654   -1.8675 C.ar    1  UNL1       -0.0473
     10 C           3.5573   -0.3141   -2.4632 C.ar    1  UNL1       -0.0156
     11 C           0.8217   -0.5167    0.1315 C.ar    1  UNL1        0.1811
     12 C           0.6008   -1.3104    1.2694 C.ar    1  UNL1        0.2107
     13 O           1.6891   -2.0292    1.8045 O.3     1  UNL1       -0.4883
     14 C           1.6698   -2.8667    2.9553 C.3     1  UNL1        0.0791
     15 C          -0.7080   -1.3621    1.7951 C.ar    1  UNL1        0.2383
     16 O          -0.9473   -2.0536    2.8205 O.2     1  UNL1       -0.2830
     17 C          -1.7502   -0.6416    1.1628 C.ar    1  UNL1        0.1167
     18 C          -1.4374    0.1094    0.0091 C.ar    1  UNL1        0.1884
     19 O          -0.1879    0.1286   -0.4384 O.2     1  UNL1       -0.4470
     20 C          -2.4414    0.8468   -0.6668 C.ar    1  UNL1        0.2088
     21 O          -2.1603    1.6243   -1.8076 O.3     1  UNL1       -0.4884
     22 C          -0.9087    1.7752   -2.4696 C.3     1  UNL1        0.0791
     23 C          -3.7784    0.8117   -0.1867 C.ar    1  UNL1        0.2110
     24 O          -4.8278    1.5117   -0.8149 O.3     1  UNL1       -0.4883
     25 C          -4.7655    2.3125   -1.9903 C.3     1  UNL1        0.0791
     26 C          -4.0888    0.0487    0.9675 C.ar    1  UNL1        0.2082
     27 O          -5.3928   -0.0828    1.4880 O.3     1  UNL1       -0.4884
     28 C          -6.5893    0.5002    0.9832 C.3     1  UNL1        0.0791
     29 C          -3.0755   -0.6452    1.6470 C.ar    1  UNL1        0.1799
     30 O          -3.4009   -1.3657    2.8029 O.3     1  UNL1       -0.4905
     31 C          -3.7607   -0.7220    4.0207 C.3     1  UNL1        0.0790
     32 H           5.9822   -0.9938   -4.0176 H       1  UNL1        0.0660
     33 H           7.3408    0.1701   -3.7907 H       1  UNL1        0.0660
     34 H           5.6958    0.7974   -4.1810 H       1  UNL1        0.0660
     35 H           5.0960    1.2806    2.2158 H       1  UNL1        0.0660
     36 H           6.7747    0.6227    2.2294 H       1  UNL1        0.0660
     37 H           5.3798   -0.5122    2.3669 H       1  UNL1        0.0660
     38 H           3.1777    0.0097    1.3801 H       1  UNL1        0.0662
     39 H           1.4439   -0.6664   -2.4935 H       1  UNL1        0.0626
     40 H           3.6303   -0.3971   -3.5389 H       1  UNL1        0.0655
     41 H           1.3799   -2.2805    3.8526 H       1  UNL1        0.0660
     42 H           2.6890   -3.2723    3.1200 H       1  UNL1        0.0660
     43 H           0.9773   -3.7202    2.7985 H       1  UNL1        0.0660
     44 H          -0.5568    0.7951   -2.8526 H       1  UNL1        0.0660
     45 H          -0.1619    2.2326   -1.7871 H       1  UNL1        0.0660
     46 H          -1.0433    2.4544   -3.3361 H       1  UNL1        0.0660
     47 H          -4.4306    1.7030   -2.8558 H       1  UNL1        0.0660
     48 H          -5.7821    2.6953   -2.2141 H       1  UNL1        0.0660
     49 H          -4.0996    3.1858   -1.8280 H       1  UNL1        0.0660
     50 H          -6.7868    0.1432   -0.0493 H       1  UNL1        0.0660
     51 H          -6.5245    1.6078    1.0213 H       1  UNL1        0.0660
     52 H          -7.4376    0.1843    1.6241 H       1  UNL1        0.0660
     53 H          -2.9431   -0.0435    4.3440 H       1  UNL1        0.0660
     54 H          -4.6974   -0.1410    3.9005 H       1  UNL1        0.0660
     55 H          -3.9181   -1.4909    4.8044 H       1  UNL1        0.0660
@<TRIPOS>BOND
     1     1     2    1
     2     2     3    1
     3     3     4   ar
     4     4     5    1
     5     5     6    1
     6     4     7   ar
     7     7     8   ar
     8     8     9   ar
     9     9    10   ar
    10     8    11    1
    11    11    12   ar
    12    12    13    1
    13    13    14    1
    14    12    15   ar
    15    15    16    2
    16    15    17   ar
    17    17    18   ar
    18    18    19   ar
    19    18    20   ar
    20    20    21    1
    21    21    22    1
    22    20    23   ar
    23    23    24    1
    24    24    25    1
    25    23    26   ar
    26    26    27    1
    27    27    28    1
    28    26    29   ar
    29    29    30    1
    30    30    31    1
    31    10     3   ar
    32    19    11   ar
    33    29    17   ar
    34     1    32    1
    35     1    33    1
    36     1    34    1
    37     6    35    1
    38     6    36    1
    39     6    37    1
    40     7    38    1
    41     9    39    1
    42    10    40    1
    43    14    41    1
    44    14    42    1
    45    14    43    1
    46    22    44    1
    47    22    45    1
    48    22    46    1
    49    25    47    1
    50    25    48    1
    51    25    49    1
    52    28    50    1
    53    28    51    1
    54    28    52    1
    55    31    53    1
    56    31    54    1
    57    31    55    1
