@<TRIPOS>MOLECULE
3-Methoxysinensetin
 51 53 0 0 0
SMALL
GASTEIGER

@<TRIPOS>ATOM
      1 C           7.2297   -1.4973    1.4149 C.3     1  UNL1        0.0790
      2 O           6.3709   -1.2597    0.3043 O.3     1  UNL1       -0.4915
      3 C           5.0172   -0.9021    0.4081 C.ar    1  UNL1        0.1615
      4 C           4.2885   -0.6985   -0.7738 C.ar    1  UNL1        0.1622
      5 O           4.9497   -0.8666   -2.0010 O.3     1  UNL1       -0.4914
      6 C           4.3402   -0.6961   -3.2767 C.3     1  UNL1        0.0790
      7 C           2.9289   -0.3363   -0.7006 C.ar    1  UNL1       -0.0055
      8 C           2.2995   -0.1625    0.5412 C.ar    1  UNL1        0.0247
      9 C           3.0313   -0.3898    1.7168 C.ar    1  UNL1       -0.0473
     10 C           4.3785   -0.7489    1.6526 C.ar    1  UNL1       -0.0156
     11 C           0.8628    0.1934    0.5871 C.ar    1  UNL1        0.1809
     12 C           0.3635    1.1705    1.4694 C.ar    1  UNL1        0.2107
     13 O           1.2802    1.8589    2.2900 O.3     1  UNL1       -0.4883
     14 C           0.9748    2.8772    3.2367 C.3     1  UNL1        0.0791
     15 C          -1.0277    1.4268    1.4615 C.ar    1  UNL1        0.2382
     16 O          -1.5130    2.2803    2.2505 O.2     1  UNL1       -0.2830
     17 C          -1.8700    0.7264    0.5619 C.ar    1  UNL1        0.1131
     18 C          -3.2750    0.9333    0.4915 C.ar    1  UNL1        0.1797
     19 O          -3.8439    1.8775    1.3737 O.3     1  UNL1       -0.4905
     20 C          -5.2129    2.2516    1.4862 C.3     1  UNL1        0.0790
     21 C          -4.0513    0.1952   -0.4496 C.ar    1  UNL1        0.2045
     22 O          -5.4403    0.4234   -0.4938 O.3     1  UNL1       -0.4885
     23 C          -6.3959   -0.1992   -1.3457 C.3     1  UNL1        0.0791
     24 C          -3.4114   -0.7384   -1.3069 C.ar    1  UNL1        0.1687
     25 O          -4.1647   -1.4698   -2.2397 O.3     1  UNL1       -0.4912
     26 C          -3.6380   -2.4304   -3.1502 C.3     1  UNL1        0.0790
     27 C          -2.0246   -0.9234   -1.2140 C.ar    1  UNL1        0.0270
     28 C          -1.2636   -0.2088   -0.2979 C.ar    1  UNL1        0.1468
     29 O           0.0431   -0.4297   -0.2500 O.2     1  UNL1       -0.4507
     30 H           8.2411   -1.7583    1.0416 H       1  UNL1        0.0660
     31 H           6.8450   -2.3447    2.0207 H       1  UNL1        0.0660
     32 H           7.3068   -0.5830    2.0406 H       1  UNL1        0.0660
     33 H           5.0932   -0.8923   -4.0671 H       1  UNL1        0.0660
     34 H           3.5019   -1.4143   -3.3985 H       1  UNL1        0.0660
     35 H           3.9717    0.3455   -3.3878 H       1  UNL1        0.0660
     36 H           2.3571   -0.1762   -1.6052 H       1  UNL1        0.0662
     37 H           2.5567   -0.3121    2.6869 H       1  UNL1        0.0626
     38 H           4.9129   -0.9135    2.5782 H       1  UNL1        0.0655
     39 H           0.5144    3.7501    2.7279 H       1  UNL1        0.0660
     40 H           0.3038    2.4792    4.0267 H       1  UNL1        0.0660
     41 H           1.9161    3.2127    3.7179 H       1  UNL1        0.0660
     42 H          -5.5714    2.6961    0.5341 H       1  UNL1        0.0660
     43 H          -5.8293    1.3767    1.7816 H       1  UNL1        0.0660
     44 H          -5.3079    3.0205    2.2799 H       1  UNL1        0.0660
     45 H          -7.3999    0.2118   -1.1148 H       1  UNL1        0.0660
     46 H          -6.1692    0.0255   -2.4090 H       1  UNL1        0.0660
     47 H          -6.4221   -1.2937   -1.1613 H       1  UNL1        0.0660
     48 H          -4.4675   -2.8422   -3.7606 H       1  UNL1        0.0660
     49 H          -3.1609   -3.2641   -2.5929 H       1  UNL1        0.0660
     50 H          -2.9028   -1.9502   -3.8299 H       1  UNL1        0.0660
     51 H          -1.5162   -1.6306   -1.8555 H       1  UNL1        0.0692
@<TRIPOS>BOND
     1     1     2    1
     2     2     3    1
     3     3     4   ar
     4     4     5    1
     5     5     6    1
     6     4     7   ar
     7     7     8   ar
     8     8     9   ar
     9     9    10   ar
    10     8    11    1
    11    11    12   ar
    12    12    13    1
    13    13    14    1
    14    12    15   ar
    15    15    16    2
    16    15    17   ar
    17    17    18   ar
    18    18    19    1
    19    19    20    1
    20    18    21   ar
    21    21    22    1
    22    22    23    1
    23    21    24   ar
    24    24    25    1
    25    25    26    1
    26    24    27   ar
    27    27    28   ar
    28    28    29   ar
    29    10     3   ar
    30    29    11   ar
    31    28    17   ar
    32     1    30    1
    33     1    31    1
    34     1    32    1
    35     6    33    1
    36     6    34    1
    37     6    35    1
    38     7    36    1
    39     9    37    1
    40    10    38    1
    41    14    39    1
    42    14    40    1
    43    14    41    1
    44    20    42    1
    45    20    43    1
    46    20    44    1
    47    23    45    1
    48    23    46    1
    49    23    47    1
    50    26    48    1
    51    26    49    1
    52    26    50    1
    53    27    51    1
