@<TRIPOS>MOLECULE
Daidzein
 29 31 0 0 0
SMALL
GASTEIGER

@<TRIPOS>ATOM
      1 O          -6.0399    0.0335   -0.1108 O.3     1  UNL1       -0.5068
      2 C          -4.6495   -0.0270   -0.1705 C.ar    1  UNL1        0.1169
      3 C          -3.9100   -0.5442    0.9010 C.ar    1  UNL1       -0.0196
      4 C          -2.5147   -0.5993    0.8304 C.ar    1  UNL1       -0.0504
      5 C          -1.8412   -0.1332   -0.3128 C.ar    1  UNL1       -0.0110
      6 C          -2.5916    0.3775   -1.3868 C.ar    1  UNL1       -0.0504
      7 C          -3.9867    0.4320   -1.3127 C.ar    1  UNL1       -0.0196
      8 C          -0.3604   -0.1980   -0.3979 C.ar    1  UNL1        0.0643
      9 C           0.2521   -0.7326   -1.5429 C.ar    1  UNL1        0.1038
     10 O           1.5749   -0.8067   -1.6385 O.2     1  UNL1       -0.4620
     11 C           2.3886   -0.3868   -0.6762 C.ar    1  UNL1        0.1419
     12 C           1.8628    0.1709    0.5108 C.ar    1  UNL1        0.0648
     13 C           2.7436    0.6130    1.5150 C.ar    1  UNL1       -0.0439
     14 C           4.1255    0.4974    1.3375 C.ar    1  UNL1       -0.0193
     15 C           4.6430   -0.0576    0.1593 C.ar    1  UNL1        0.1204
     16 O           6.0189   -0.1759   -0.0243 O.3     1  UNL1       -0.5066
     17 C           3.7733   -0.4977   -0.8437 C.ar    1  UNL1        0.0228
     18 C           0.4666    0.2689    0.6421 C.ar    1  UNL1        0.2001
     19 O          -0.0406    0.7890    1.6745 O.2     1  UNL1       -0.2864
     20 H          -6.5495   -0.2915    0.7026 H       1  UNL1        0.2921
     21 H          -4.4153   -0.9078    1.7868 H       1  UNL1        0.0654
     22 H          -1.9628   -1.0211    1.6611 H       1  UNL1        0.0625
     23 H          -2.0967    0.7459   -2.2770 H       1  UNL1        0.0625
     24 H          -4.5533    0.8324   -2.1437 H       1  UNL1        0.0654
     25 H          -0.3505   -1.1013   -2.3631 H       1  UNL1        0.1037
     26 H           2.3687    1.0456    2.4345 H       1  UNL1        0.0627
     27 H           4.7942    0.8400    2.1169 H       1  UNL1        0.0654
     28 H           6.6759    0.1332    0.6825 H       1  UNL1        0.2921
     29 H           4.1746   -0.9256   -1.7541 H       1  UNL1        0.0691
@<TRIPOS>BOND
     1     1     2    1
     2     2     3   ar
     3     3     4   ar
     4     4     5   ar
     5     5     6   ar
     6     6     7   ar
     7     5     8    1
     8     8     9   ar
     9     9    10   ar
    10    10    11   ar
    11    11    12   ar
    12    12    13   ar
    13    13    14   ar
    14    14    15   ar
    15    15    16    1
    16    15    17   ar
    17    12    18   ar
    18    18    19    2
    19     7     2   ar
    20    18     8   ar
    21    17    11   ar
    22     1    20    1
    23     3    21    1
    24     4    22    1
    25     6    23    1
    26     7    24    1
    27     9    25    1
    28    13    26    1
    29    14    27    1
    30    16    28    1
    31    17    29    1
