@<TRIPOS>MOLECULE
Formononetin
 32 34 0 0 0
SMALL
GASTEIGER

@<TRIPOS>ATOM
      1 C           6.3208    0.2924   -0.2012 C.3     1  UNL1        0.0788
      2 O           5.2662    0.7620    0.6322 O.3     1  UNL1       -0.4951
      3 C           3.9089    0.4691    0.4325 C.ar    1  UNL1        0.1201
      4 C           2.9753    0.9973    1.3309 C.ar    1  UNL1       -0.0194
      5 C           1.6113    0.7356    1.1751 C.ar    1  UNL1       -0.0504
      6 C           1.1566   -0.0596    0.1097 C.ar    1  UNL1       -0.0110
      7 C           2.0940   -0.5967   -0.7885 C.ar    1  UNL1       -0.0504
      8 C           3.4581   -0.3336   -0.6322 C.ar    1  UNL1       -0.0194
      9 C          -0.2902   -0.3491   -0.0554 C.ar    1  UNL1        0.0643
     10 C          -0.7202   -1.6692   -0.2664 C.ar    1  UNL1        0.1038
     11 O          -2.0099   -1.9528   -0.4103 O.2     1  UNL1       -0.4620
     12 C          -2.9582   -1.0237   -0.3659 C.ar    1  UNL1        0.1419
     13 C          -2.6199    0.3331   -0.1629 C.ar    1  UNL1        0.0648
     14 C          -3.6405    1.3007   -0.1237 C.ar    1  UNL1       -0.0439
     15 C          -4.9762    0.9191   -0.2817 C.ar    1  UNL1       -0.0193
     16 C          -5.3078   -0.4278   -0.4814 C.ar    1  UNL1        0.1204
     17 O          -6.6366   -0.8152   -0.6396 O.3     1  UNL1       -0.5066
     18 C          -4.2982   -1.3948   -0.5231 C.ar    1  UNL1        0.0228
     19 C          -1.2630    0.6684   -0.0122 C.ar    1  UNL1        0.2001
     20 O          -0.9183    1.8732    0.1406 O.2     1  UNL1       -0.2864
     21 H           7.2871    0.6746    0.1868 H       1  UNL1        0.0660
     22 H           6.1821    0.6641   -1.2385 H       1  UNL1        0.0660
     23 H           6.3484   -0.8177   -0.1932 H       1  UNL1        0.0660
     24 H           3.3099    1.6109    2.1578 H       1  UNL1        0.0654
     25 H           0.9129    1.1408    1.8967 H       1  UNL1        0.0625
     26 H           1.7683   -1.2099   -1.6198 H       1  UNL1        0.0625
     27 H           4.1525   -0.7578   -1.3445 H       1  UNL1        0.0654
     28 H          -0.0018   -2.4780   -0.3060 H       1  UNL1        0.1037
     29 H          -3.4103    2.3480    0.0292 H       1  UNL1        0.0627
     30 H          -5.7537    1.6717   -0.2490 H       1  UNL1        0.0654
     31 H          -7.3916   -0.1398   -0.6146 H       1  UNL1        0.2921
     32 H          -4.5557   -2.4352   -0.6783 H       1  UNL1        0.0691
@<TRIPOS>BOND
     1     1     2    1
     2     2     3    1
     3     3     4   ar
     4     4     5   ar
     5     5     6   ar
     6     6     7   ar
     7     7     8   ar
     8     6     9    1
     9     9    10   ar
    10    10    11   ar
    11    11    12   ar
    12    12    13   ar
    13    13    14   ar
    14    14    15   ar
    15    15    16   ar
    16    16    17    1
    17    16    18   ar
    18    13    19   ar
    19    19    20    2
    20     8     3   ar
    21    19     9   ar
    22    18    12   ar
    23     1    21    1
    24     1    22    1
    25     1    23    1
    26     4    24    1
    27     5    25    1
    28     7    26    1
    29     8    27    1
    30    10    28    1
    31    14    29    1
    32    15    30    1
    33    17    31    1
    34    18    32    1
