@<TRIPOS>MOLECULE
Genistein
 30 32 0 0 0
SMALL
GASTEIGER

@<TRIPOS>ATOM
      1 O           5.9768    1.1806   -0.2812 O.3     1  UNL1       -0.5068
      2 C           4.6148    0.9558   -0.0944 C.ar    1  UNL1        0.1169
      3 C           4.1717    0.3339    1.0767 C.ar    1  UNL1       -0.0196
      4 C           2.8077    0.1018    1.2781 C.ar    1  UNL1       -0.0504
      5 C           1.8691    0.4860    0.3039 C.ar    1  UNL1       -0.0110
      6 C           2.3212    1.1165   -0.8690 C.ar    1  UNL1       -0.0504
      7 C           3.6858    1.3477   -1.0670 C.ar    1  UNL1       -0.0196
      8 C           0.4193    0.2467    0.5226 C.ar    1  UNL1        0.0644
      9 C          -0.1659    0.5973    1.7446 C.ar    1  UNL1        0.1038
     10 O          -1.4524    0.3754    1.9698 O.2     1  UNL1       -0.4618
     11 C          -2.2617   -0.1610    1.0644 C.ar    1  UNL1        0.1454
     12 C          -3.5980   -0.3801    1.4081 C.ar    1  UNL1        0.0231
     13 C          -4.4770   -0.9576    0.4953 C.ar    1  UNL1        0.1239
     14 O          -5.8000   -1.1876    0.8665 O.3     1  UNL1       -0.5065
     15 C          -4.0278   -1.2919   -0.7848 C.ar    1  UNL1        0.0223
     16 C          -2.7044   -1.0481   -1.1720 C.ar    1  UNL1        0.1347
     17 O          -2.3823   -1.3233   -2.5042 O.3     1  UNL1       -0.5058
     18 C          -1.7801   -0.5152   -0.2242 C.ar    1  UNL1        0.1060
     19 C          -0.3935   -0.3463   -0.4632 C.ar    1  UNL1        0.2037
     20 O           0.1408   -0.7665   -1.5236 O.2     1  UNL1       -0.2863
     21 H           6.3293    1.6292   -1.1187 H       1  UNL1        0.2921
     22 H           4.8854    0.0289    1.8315 H       1  UNL1        0.0654
     23 H           2.4860   -0.3893    2.1881 H       1  UNL1        0.0625
     24 H           1.6173    1.4433   -1.6244 H       1  UNL1        0.0625
     25 H           4.0193    1.8352   -1.9743 H       1  UNL1        0.0654
     26 H           0.4282    1.0552    2.5252 H       1  UNL1        0.1037
     27 H          -3.9514   -0.1123    2.3965 H       1  UNL1        0.0691
     28 H          -6.4658   -1.6036    0.2257 H       1  UNL1        0.2921
     29 H          -4.7218   -1.7160   -1.5001 H       1  UNL1        0.0691
     30 H          -1.5905   -0.9348   -2.9942 H       1  UNL1        0.2922
@<TRIPOS>BOND
     1     1     2    1
     2     2     3   ar
     3     3     4   ar
     4     4     5   ar
     5     5     6   ar
     6     6     7   ar
     7     5     8    1
     8     8     9   ar
     9     9    10   ar
    10    10    11   ar
    11    11    12   ar
    12    12    13   ar
    13    13    14    1
    14    13    15   ar
    15    15    16   ar
    16    16    17    1
    17    16    18   ar
    18    18    19   ar
    19    19    20    2
    20     7     2   ar
    21    19     8   ar
    22    18    11   ar
    23     1    21    1
    24     3    22    1
    25     4    23    1
    26     6    24    1
    27     7    25    1
    28     9    26    1
    29    12    27    1
    30    14    28    1
    31    15    29    1
    32    17    30    1
