@<TRIPOS>MOLECULE
Biochanin A
 33 35 0 0 0
SMALL
GASTEIGER

@<TRIPOS>ATOM
      1 C          -6.1251   -0.3988    1.5595 C.3     1  UNL1        0.0788
      2 O          -5.3910   -0.7908    0.4042 O.3     1  UNL1       -0.4951
      3 C          -4.0216   -0.5509    0.2171 C.ar    1  UNL1        0.1201
      4 C          -3.4251   -0.9918   -0.9692 C.ar    1  UNL1       -0.0194
      5 C          -2.0640   -0.7775   -1.2034 C.ar    1  UNL1       -0.0504
      6 C          -1.2724   -0.1199   -0.2470 C.ar    1  UNL1       -0.0110
      7 C          -1.8718    0.3288    0.9421 C.ar    1  UNL1       -0.0504
      8 C          -3.2336    0.1146    1.1749 C.ar    1  UNL1       -0.0194
      9 C           0.1724    0.1147   -0.5006 C.ar    1  UNL1        0.0644
     10 C           0.5854    0.6391   -1.7307 C.ar    1  UNL1        0.1038
     11 O           1.8698    0.8383   -1.9869 O.2     1  UNL1       -0.4618
     12 C           2.8298    0.5822   -1.1065 C.ar    1  UNL1        0.1454
     13 C           4.1575    0.8005   -1.4823 C.ar    1  UNL1        0.0231
     14 C           5.1979    0.5265   -0.5933 C.ar    1  UNL1        0.1239
     15 O           6.5247    0.7218   -0.9709 O.3     1  UNL1       -0.5065
     16 C           4.9090    0.0615    0.6889 C.ar    1  UNL1        0.0223
     17 C           3.5867   -0.1296    1.1082 C.ar    1  UNL1        0.1347
     18 O           3.4020   -0.4994    2.4436 O.3     1  UNL1       -0.5058
     19 C           2.5178    0.0870    0.1878 C.ar    1  UNL1        0.1060
     20 C           1.1557   -0.1943    0.4595 C.ar    1  UNL1        0.2037
     21 O           0.8090   -0.7677    1.5260 O.2     1  UNL1       -0.2863
     22 H          -7.1819   -0.7146    1.4420 H       1  UNL1        0.0660
     23 H          -6.0947    0.7053    1.6747 H       1  UNL1        0.0660
     24 H          -5.7057   -0.8894    2.4631 H       1  UNL1        0.0660
     25 H          -4.0203   -1.5051   -1.7139 H       1  UNL1        0.0654
     26 H          -1.6257   -1.1371   -2.1262 H       1  UNL1        0.0625
     27 H          -1.2888    0.8592    1.6849 H       1  UNL1        0.0625
     28 H          -3.6638    0.4737    2.0997 H       1  UNL1        0.0654
     29 H          -0.1426    0.8885   -2.4921 H       1  UNL1        0.1037
     30 H           4.3803    1.1718   -2.4752 H       1  UNL1        0.0691
     31 H           6.7686    1.0614   -1.8940 H       1  UNL1        0.2921
     32 H           5.7213   -0.1231    1.3813 H       1  UNL1        0.0691
     33 H           2.5403   -0.3850    2.9558 H       1  UNL1        0.2922
@<TRIPOS>BOND
     1     1     2    1
     2     2     3    1
     3     3     4   ar
     4     4     5   ar
     5     5     6   ar
     6     6     7   ar
     7     7     8   ar
     8     6     9    1
     9     9    10   ar
    10    10    11   ar
    11    11    12   ar
    12    12    13   ar
    13    13    14   ar
    14    14    15    1
    15    14    16   ar
    16    16    17   ar
    17    17    18    1
    18    17    19   ar
    19    19    20   ar
    20    20    21    2
    21     8     3   ar
    22    20     9   ar
    23    19    12   ar
    24     1    22    1
    25     1    23    1
    26     1    24    1
    27     4    25    1
    28     5    26    1
    29     7    27    1
    30     8    28    1
    31    10    29    1
    32    13    30    1
    33    15    31    1
    34    16    32    1
    35    18    33    1
