@<TRIPOS>MOLECULE
Glycitein
 33 35 0 0 0
SMALL
GASTEIGER

@<TRIPOS>ATOM
      1 C          -4.8774    0.3839   -2.1959 C.3     1  UNL1        0.0790
      2 O          -4.8710    0.2129   -0.7823 O.3     1  UNL1       -0.4914
      3 C          -3.7120    0.0711   -0.0028 C.ar    1  UNL1        0.1622
      4 C          -3.8568   -0.0903    1.3826 C.ar    1  UNL1        0.1620
      5 O          -5.1330   -0.1055    1.9432 O.3     1  UNL1       -0.5032
      6 C          -2.7274   -0.2357    2.1986 C.ar    1  UNL1        0.0265
      7 C          -1.4464   -0.2210    1.6415 C.ar    1  UNL1        0.1421
      8 O          -0.3866   -0.3626    2.4299 O.2     1  UNL1       -0.4620
      9 C           0.8583   -0.3556    1.9672 C.ar    1  UNL1        0.1038
     10 C           1.1177   -0.1940    0.5969 C.ar    1  UNL1        0.0643
     11 C           0.0209   -0.0514   -0.2749 C.ar    1  UNL1        0.2003
     12 O           0.2074    0.0613   -1.5184 O.2     1  UNL1       -0.2864
     13 C          -1.2843   -0.0579    0.2492 C.ar    1  UNL1        0.0682
     14 C          -2.4209    0.0862   -0.5676 C.ar    1  UNL1       -0.0019
     15 C           2.5186   -0.1822    0.1053 C.ar    1  UNL1       -0.0110
     16 C           2.9645    0.8285   -0.7650 C.ar    1  UNL1       -0.0504
     17 C           4.2874    0.8395   -1.2174 C.ar    1  UNL1       -0.0196
     18 C           5.1818   -0.1559   -0.8029 C.ar    1  UNL1        0.1169
     19 O           6.5018   -0.1553   -1.2478 O.3     1  UNL1       -0.5068
     20 C           4.7468   -1.1598    0.0675 C.ar    1  UNL1       -0.0196
     21 C           3.4248   -1.1732    0.5223 C.ar    1  UNL1       -0.0504
     22 H          -4.4088   -0.4939   -2.6890 H       1  UNL1        0.0660
     23 H          -4.3345    1.3130   -2.4707 H       1  UNL1        0.0660
     24 H          -5.9265    0.4693   -2.5458 H       1  UNL1        0.0660
     25 H          -5.2734   -0.2203    2.9402 H       1  UNL1        0.2923
     26 H          -2.8455   -0.3609    3.2679 H       1  UNL1        0.0692
     27 H           1.6751   -0.4685    2.6685 H       1  UNL1        0.1037
     28 H          -2.2994    0.2103   -1.6353 H       1  UNL1        0.0663
     29 H           2.2944    1.6181   -1.0812 H       1  UNL1        0.0625
     30 H           4.6172    1.6244   -1.8861 H       1  UNL1        0.0654
     31 H           6.8476    0.5586   -1.8785 H       1  UNL1        0.2921
     32 H           5.4339   -1.9314    0.3911 H       1  UNL1        0.0654
     33 H           3.1054   -1.9644    1.1895 H       1  UNL1        0.0625
@<TRIPOS>BOND
     1     1     2    1
     2     2     3    1
     3     3     4   ar
     4     4     5    1
     5     4     6   ar
     6     6     7   ar
     7     7     8   ar
     8     8     9   ar
     9     9    10   ar
    10    10    11   ar
    11    11    12    2
    12    11    13   ar
    13    13    14   ar
    14    10    15    1
    15    15    16   ar
    16    16    17   ar
    17    17    18   ar
    18    18    19    1
    19    18    20   ar
    20    20    21   ar
    21    14     3   ar
    22    21    15   ar
    23    13     7   ar
    24     1    22    1
    25     1    23    1
    26     1    24    1
    27     5    25    1
    28     6    26    1
    29     9    27    1
    30    14    28    1
    31    16    29    1
    32    17    30    1
    33    19    31    1
    34    20    32    1
    35    21    33    1
