@<TRIPOS>MOLECULE
Glycitin
 54 57 0 0 0
SMALL
GASTEIGER

@<TRIPOS>ATOM
      1 C          -1.1791    2.8385   -0.9387 C.3     1  UNL1        0.0790
      2 O          -1.3927    1.4319   -0.8803 O.3     1  UNL1       -0.4914
      3 C          -0.3996    0.4735   -0.6256 C.ar    1  UNL1        0.1625
      4 C          -0.7335   -0.9062   -0.6043 C.ar    1  UNL1        0.1689
      5 O          -2.0336   -1.4104   -0.7995 O.3     1  UNL1       -0.4570
      6 C          -3.2452   -0.6604   -0.8705 C.3     1  UNL1        0.2310
      7 O          -3.4346    0.0241    0.3559 O.3     1  UNL1       -0.3313
      8 C          -4.5651    0.8758    0.2816 C.3     1  UNL1        0.1140
      9 C          -4.6252    1.7144    1.5668 C.3     1  UNL1        0.0731
     10 O          -3.4468    2.4583    1.7213 O.3     1  UNL1       -0.3924
     11 C          -5.8540    0.0388    0.1153 C.3     1  UNL1        0.1120
     12 O          -6.9599    0.8957   -0.0152 O.3     1  UNL1       -0.3865
     13 C          -5.7395   -0.8522   -1.1344 C.3     1  UNL1        0.1152
     14 O          -6.8216   -1.7472   -1.1665 O.3     1  UNL1       -0.3864
     15 C          -4.4139   -1.6325   -1.1141 C.3     1  UNL1        0.1454
     16 O          -4.2439   -2.2898   -2.3440 O.3     1  UNL1       -0.3829
     17 C           0.2734   -1.8531   -0.3827 C.ar    1  UNL1        0.0268
     18 C           1.5953   -1.4647   -0.1641 C.ar    1  UNL1        0.1421
     19 O           2.5244   -2.3907    0.0463 O.2     1  UNL1       -0.4620
     20 C           3.7998   -2.0914    0.2648 C.ar    1  UNL1        0.1038
     21 C           4.2333   -0.7565    0.2855 C.ar    1  UNL1        0.0643
     22 C           3.2804    0.2546    0.0555 C.ar    1  UNL1        0.2003
     23 O           3.6331    1.4665    0.0299 O.2     1  UNL1       -0.2864
     24 C           1.9370   -0.0991   -0.1675 C.ar    1  UNL1        0.0682
     25 C           0.9383    0.8611   -0.3999 C.ar    1  UNL1       -0.0019
     26 C           5.6628   -0.4460    0.5395 C.ar    1  UNL1       -0.0110
     27 C           6.6725   -1.1354   -0.1552 C.ar    1  UNL1       -0.0504
     28 C           8.0196   -0.8509    0.0881 C.ar    1  UNL1       -0.0196
     29 C           8.3745    0.1212    1.0323 C.ar    1  UNL1        0.1169
     30 O           9.7134    0.4129    1.2829 O.3     1  UNL1       -0.5068
     31 C           7.3759    0.8052    1.7320 C.ar    1  UNL1       -0.0196
     32 C           6.0279    0.5236    1.4905 C.ar    1  UNL1       -0.0504
     33 H          -0.8084    3.2094    0.0401 H       1  UNL1        0.0660
     34 H          -2.1418    3.3402   -1.1662 H       1  UNL1        0.0660
     35 H          -0.4542    3.0824   -1.7437 H       1  UNL1        0.0660
     36 H          -3.1813    0.0426   -1.7331 H       1  UNL1        0.1084
     37 H          -4.4666    1.5847   -0.5748 H       1  UNL1        0.0647
     38 H          -4.7337    1.0426    2.4452 H       1  UNL1        0.0584
     39 H          -5.5062    2.3961    1.5498 H       1  UNL1        0.0584
     40 H          -3.5152    3.2305    1.1012 H       1  UNL1        0.2095
     41 H          -5.9743   -0.6096    1.0166 H       1  UNL1        0.0647
     42 H          -7.7652    0.3647    0.2195 H       1  UNL1        0.2100
     43 H          -5.7639   -0.1945   -2.0370 H       1  UNL1        0.0648
     44 H          -6.9108   -2.0585   -2.1050 H       1  UNL1        0.2100
     45 H          -4.4507   -2.3761   -0.2820 H       1  UNL1        0.0683
     46 H          -3.6100   -3.0374   -2.1867 H       1  UNL1        0.2102
     47 H           0.0210   -2.9066   -0.3740 H       1  UNL1        0.0692
     48 H           4.5020   -2.8971    0.4365 H       1  UNL1        0.1037
     49 H           1.2059    1.9088   -0.4081 H       1  UNL1        0.0663
     50 H           6.4176   -1.8843   -0.8949 H       1  UNL1        0.0625
     51 H           8.7861   -1.3857   -0.4583 H       1  UNL1        0.0654
     52 H          10.4602   -0.0656    0.7928 H       1  UNL1        0.2921
     53 H           7.6449    1.5529    2.4673 H       1  UNL1        0.0654
     54 H           5.2711    1.0508    2.0579 H       1  UNL1        0.0625
@<TRIPOS>BOND
     1     1     2    1
     2     2     3    1
     3     3     4   ar
     4     4     5    1
     5     5     6    1
     6     6     7    1
     7     7     8    1
     8     8     9    1
     9     9    10    1
    10     8    11    1
    11    11    12    1
    12    11    13    1
    13    13    14    1
    14    13    15    1
    15    15    16    1
    16     4    17   ar
    17    17    18   ar
    18    18    19   ar
    19    19    20   ar
    20    20    21   ar
    21    21    22   ar
    22    22    23    2
    23    22    24   ar
    24    24    25   ar
    25    21    26    1
    26    26    27   ar
    27    27    28   ar
    28    28    29   ar
    29    29    30    1
    30    29    31   ar
    31    31    32   ar
    32    25     3   ar
    33    32    26   ar
    34    15     6    1
    35    24    18   ar
    36     1    33    1
    37     1    34    1
    38     1    35    1
    39     6    36    1
    40     8    37    1
    41     9    38    1
    42     9    39    1
    43    10    40    1
    44    11    41    1
    45    12    42    1
    46    13    43    1
    47    14    44    1
    48    15    45    1
    49    16    46    1
    50    17    47    1
    51    20    48    1
    52    25    49    1
    53    27    50    1
    54    28    51    1
    55    30    52    1
    56    31    53    1
    57    32    54    1
