@<TRIPOS>MOLECULE
Petunidin 3-O-glucoside
 57 60 0 0 0
SMALL
GASTEIGER

@<TRIPOS>ATOM
      1 C           0.0888   -3.3026   -2.9126 C.3     1  UNL1        0.0790
      2 O          -0.7714   -2.5324   -3.7466 O.3     1  UNL1       -0.4913
      3 C          -1.4354   -1.3642   -3.3396 C.ar    1  UNL1        0.1658
      4 C          -2.2144   -0.6760   -4.2806 C.ar    1  UNL1        0.2008
      5 O          -2.3023   -1.1722   -5.5819 O.3     1  UNL1       -0.5009
      6 C          -2.8964    0.4953   -3.9106 C.ar    1  UNL1        0.1628
      7 O          -3.6769    1.1731   -4.8460 O.3     1  UNL1       -0.5032
      8 C          -2.7900    0.9813   -2.6013 C.ar    1  UNL1       -0.0000
      9 C          -1.9987    0.3149   -1.6551 C.ar    1  UNL1        0.0899
     10 C          -1.3424   -0.8714   -2.0245 C.ar    1  UNL1        0.0002
     11 C          -1.9147    0.8422   -0.2733 C.ar    1  UNL1        0.4047
     12 O          -3.0293    1.3033    0.2904 O.2     1  UNL1       -0.1997
     13 C          -3.0736    1.7846    1.5273 C.ar    1  UNL1        0.3708
     14 C          -1.9049    1.8332    2.3151 C.ar    1  UNL1        0.1241
     15 C          -0.7086    1.3737    1.7526 C.ar    1  UNL1        0.0093
     16 C          -0.6973    0.8727    0.4404 C.ar    1  UNL1        0.2288
     17 O           0.4840    0.4464   -0.1926 O.3     1  UNL1       -0.4515
     18 C           1.7107    0.0931    0.4499 C.3     1  UNL1        0.2312
     19 O           2.6966   -0.0474   -0.5535 O.3     1  UNL1       -0.3313
     20 C           3.9943   -0.1079    0.0199 C.3     1  UNL1        0.1140
     21 C           4.9992   -0.3761   -1.1074 C.3     1  UNL1        0.0731
     22 O           6.3092   -0.2489   -0.6261 O.3     1  UNL1       -0.3924
     23 C           4.1039   -1.1841    1.1490 C.3     1  UNL1        0.1120
     24 O           4.2656   -0.5309    2.3838 O.3     1  UNL1       -0.3865
     25 C           2.8476   -2.0826    1.2040 C.3     1  UNL1        0.1152
     26 O           2.8543   -3.0153    0.1489 O.3     1  UNL1       -0.3864
     27 C           1.5399   -1.2466    1.2117 C.3     1  UNL1        0.1454
     28 O           1.1573   -0.9773    2.5363 O.3     1  UNL1       -0.3829
     29 C          -1.9659    2.3451    3.6258 C.ar    1  UNL1        0.1366
     30 O          -0.8189    2.4006    4.4184 O.3     1  UNL1       -0.5057
     31 C          -3.1909    2.8010    4.1350 C.ar    1  UNL1        0.0225
     32 C          -4.3483    2.7521    3.3513 C.ar    1  UNL1        0.1293
     33 O          -5.5536    3.2111    3.8778 O.3     1  UNL1       -0.5063
     34 C          -4.2875    2.2437    2.0475 C.ar    1  UNL1        0.0847
     35 H           0.4947   -4.1532   -3.4973 H       1  UNL1        0.0660
     36 H           0.9359   -2.6778   -2.5586 H       1  UNL1        0.0660
     37 H          -0.4777   -3.7052   -2.0465 H       1  UNL1        0.0660
     38 H          -2.8516   -0.7130   -6.2985 H       1  UNL1        0.2924
     39 H          -4.1788    2.0200   -4.6055 H       1  UNL1        0.2923
     40 H          -3.3156    1.8879   -2.3258 H       1  UNL1        0.0664
     41 H          -0.7813   -1.4203   -1.2821 H       1  UNL1        0.0664
     42 H           0.2041    1.4342    2.3259 H       1  UNL1        0.0667
     43 H           2.0038    0.9144    1.1441 H       1  UNL1        0.1084
     44 H           4.2481    0.8972    0.4317 H       1  UNL1        0.0647
     45 H           4.8354    0.3624   -1.9243 H       1  UNL1        0.0584
     46 H           4.8418   -1.3980   -1.5199 H       1  UNL1        0.0584
     47 H           6.9051   -0.4465   -1.3947 H       1  UNL1        0.2095
     48 H           4.9900   -1.8403    0.9749 H       1  UNL1        0.0647
     49 H           4.6241   -1.2005    3.0236 H       1  UNL1        0.2100
     50 H           2.8932   -2.6792    2.1419 H       1  UNL1        0.0648
     51 H           2.7153   -2.5263   -0.7018 H       1  UNL1        0.2100
     52 H           0.7384   -1.8415    0.7118 H       1  UNL1        0.0683
     53 H           0.7260   -1.8004    2.8863 H       1  UNL1        0.2102
     54 H          -0.8433    2.7650    5.3636 H       1  UNL1        0.2922
     55 H          -3.2447    3.1953    5.1422 H       1  UNL1        0.0691
     56 H          -6.4102    3.1898    3.3369 H       1  UNL1        0.2921
     57 H          -5.1825    2.2047    1.4388 H       1  UNL1        0.0749
@<TRIPOS>UNITY_ATOM_ATTR
12 1
charge 1
@<TRIPOS>BOND
     1     1     2    1
     2     2     3    1
     3     3     4   ar
     4     4     5    1
     5     4     6   ar
     6     6     7    1
     7     6     8   ar
     8     8     9   ar
     9     9    10   ar
    10     9    11    1
    11    11    12   ar
    12    12    13   ar
    13    13    14   ar
    14    14    15   ar
    15    15    16   ar
    16    16    17    1
    17    17    18    1
    18    18    19    1
    19    19    20    1
    20    20    21    1
    21    21    22    1
    22    20    23    1
    23    23    24    1
    24    23    25    1
    25    25    26    1
    26    25    27    1
    27    27    28    1
    28    14    29   ar
    29    29    30    1
    30    29    31   ar
    31    31    32   ar
    32    32    33    1
    33    32    34   ar
    34    10     3   ar
    35    16    11   ar
    36    27    18    1
    37    34    13   ar
    38     1    35    1
    39     1    36    1
    40     1    37    1
    41     5    38    1
    42     7    39    1
    43     8    40    1
    44    10    41    1
    45    15    42    1
    46    18    43    1
    47    20    44    1
    48    21    45    1
    49    21    46    1
    50    22    47    1
    51    23    48    1
    52    24    49    1
    53    25    50    1
    54    26    51    1
    55    27    52    1
    56    28    53    1
    57    30    54    1
    58    31    55    1
    59    33    56    1
    60    34    57    1
