@<TRIPOS>MOLECULE
6''-O-Acetyldaidzin
 55 58 0 0 0
SMALL
GASTEIGER

@<TRIPOS>ATOM
      1 C          -6.4028    3.7041    0.9395 C.3     1  UNL1        0.0332
      2 C          -5.2723    2.7575    0.7210 C.2     1  UNL1        0.3040
      3 O          -4.4215    2.5834    1.6353 O.2     1  UNL1       -0.2512
      4 O          -5.1912    2.0499   -0.4841 O.3     1  UNL1       -0.4621
      5 C          -4.2069    1.0519   -0.7596 C.3     1  UNL1        0.1212
      6 C          -4.7973   -0.3643   -0.5714 C.3     1  UNL1        0.1250
      7 O          -4.1236   -1.3428   -1.3575 O.3     1  UNL1       -0.3302
      8 C          -2.8617   -1.7404   -0.8386 C.3     1  UNL1        0.2308
      9 O          -1.9296   -0.6563   -0.8943 O.3     1  UNL1       -0.4607
     10 C          -0.5334   -0.7547   -0.7789 C.ar    1  UNL1        0.1275
     11 C           0.1999    0.4335   -0.6850 C.ar    1  UNL1        0.0232
     12 C           1.5930    0.4061   -0.5663 C.ar    1  UNL1        0.1419
     13 C           2.2755   -0.8291   -0.5456 C.ar    1  UNL1        0.0648
     14 C           1.5412   -2.0235   -0.6442 C.ar    1  UNL1       -0.0439
     15 C           0.1488   -1.9869   -0.7625 C.ar    1  UNL1       -0.0189
     16 C           3.6758   -0.8177   -0.4213 C.ar    1  UNL1        0.2001
     17 O           4.3190   -1.9027   -0.3685 O.2     1  UNL1       -0.2864
     18 C           4.3523    0.4144   -0.3339 C.ar    1  UNL1        0.0643
     19 C           3.5890    1.5927   -0.3582 C.ar    1  UNL1        0.1038
     20 O           2.2663    1.5473   -0.4716 O.2     1  UNL1       -0.4620
     21 C           5.8301    0.4922   -0.2135 C.ar    1  UNL1       -0.0110
     22 C           6.4197    1.3161    0.7615 C.ar    1  UNL1       -0.0504
     23 C           7.8111    1.3977    0.8717 C.ar    1  UNL1       -0.0196
     24 C           8.6303    0.6619    0.0056 C.ar    1  UNL1        0.1169
     25 O          10.0177    0.7354    0.1060 O.3     1  UNL1       -0.5068
     26 C           8.0508   -0.1535   -0.9711 C.ar    1  UNL1       -0.0196
     27 C           6.6597   -0.2379   -1.0833 C.ar    1  UNL1       -0.0504
     28 C          -2.9758   -2.3266    0.5833 C.3     1  UNL1        0.1454
     29 O          -3.6773   -3.5421    0.5245 O.3     1  UNL1       -0.3829
     30 C          -3.6806   -1.3402    1.5335 C.3     1  UNL1        0.1152
     31 O          -2.8234   -0.2708    1.8438 O.3     1  UNL1       -0.3864
     32 C          -4.9790   -0.7951    0.9114 C.3     1  UNL1        0.1130
     33 O          -6.0178   -1.7374    1.0414 O.3     1  UNL1       -0.3864
     34 H          -7.1950    3.2023    1.5329 H       1  UNL1        0.0342
     35 H          -6.0471    4.6024    1.4868 H       1  UNL1        0.0342
     36 H          -6.8255    4.0229   -0.0363 H       1  UNL1        0.0342
     37 H          -3.9054    1.1651   -1.8226 H       1  UNL1        0.0724
     38 H          -3.2998    1.2187   -0.1448 H       1  UNL1        0.0724
     39 H          -5.8235   -0.3006   -0.9968 H       1  UNL1        0.0658
     40 H          -2.4968   -2.5443   -1.5123 H       1  UNL1        0.1084
     41 H          -0.3188    1.3844   -0.6993 H       1  UNL1        0.0691
     42 H           2.0393   -2.9853   -0.6324 H       1  UNL1        0.0627
     43 H          -0.3816   -2.9246   -0.8419 H       1  UNL1        0.0654
     44 H           4.0731    2.5588   -0.2931 H       1  UNL1        0.1037
     45 H           5.8029    1.8858    1.4456 H       1  UNL1        0.0625
     46 H           8.2511    2.0318    1.6308 H       1  UNL1        0.0654
     47 H          10.4679    1.3175    0.8027 H       1  UNL1        0.2921
     48 H           8.6793   -0.7192   -1.6471 H       1  UNL1        0.0654
     49 H           6.2319   -0.8599   -1.8597 H       1  UNL1        0.0625
     50 H          -1.9521   -2.5275    0.9733 H       1  UNL1        0.0683
     51 H          -3.5022   -4.0188    1.3779 H       1  UNL1        0.2102
     52 H          -3.9447   -1.8687    2.4801 H       1  UNL1        0.0648
     53 H          -2.1432   -0.6188    2.4780 H       1  UNL1        0.2100
     54 H          -5.2946    0.0878    1.5044 H       1  UNL1        0.0647
     55 H          -5.9008   -2.4317    0.3430 H       1  UNL1        0.2100
@<TRIPOS>BOND
     1     1     2    1
     2     2     3    2
     3     2     4    1
     4     4     5    1
     5     5     6    1
     6     6     7    1
     7     7     8    1
     8     8     9    1
     9     9    10    1
    10    10    11   ar
    11    11    12   ar
    12    12    13   ar
    13    13    14   ar
    14    14    15   ar
    15    13    16   ar
    16    16    17    2
    17    16    18   ar
    18    18    19   ar
    19    19    20   ar
    20    18    21    1
    21    21    22   ar
    22    22    23   ar
    23    23    24   ar
    24    24    25    1
    25    24    26   ar
    26    26    27   ar
    27     8    28    1
    28    28    29    1
    29    28    30    1
    30    30    31    1
    31    30    32    1
    32    32    33    1
    33    32     6    1
    34    15    10   ar
    35    27    21   ar
    36    20    12   ar
    37     1    34    1
    38     1    35    1
    39     1    36    1
    40     5    37    1
    41     5    38    1
    42     6    39    1
    43     8    40    1
    44    11    41    1
    45    14    42    1
    46    15    43    1
    47    19    44    1
    48    22    45    1
    49    23    46    1
    50    25    47    1
    51    26    48    1
    52    27    49    1
    53    28    50    1
    54    29    51    1
    55    30    52    1
    56    31    53    1
    57    32    54    1
    58    33    55    1
