@<TRIPOS>MOLECULE
6''-O-Malonylgenistin
 59 62 0 0 0
SMALL
GASTEIGER

@<TRIPOS>ATOM
      1 O          -5.8410   -2.3863    1.5149 O.3     1  UNL1       -0.3864
      2 C          -4.7016   -2.3060    0.6977 C.3     1  UNL1        0.1152
      3 C          -4.9386   -1.2604   -0.4060 C.3     1  UNL1        0.1130
      4 O          -5.9269   -1.7218   -1.2917 O.3     1  UNL1       -0.3864
      5 C          -3.6213   -1.0117   -1.1784 C.3     1  UNL1        0.1250
      6 C          -3.7842    0.0463   -2.2818 C.3     1  UNL1        0.1212
      7 O          -4.0033    1.3424   -1.7244 O.3     1  UNL1       -0.4616
      8 C          -5.2707    1.8989   -1.5197 C.2     1  UNL1        0.3180
      9 O          -6.3064    1.3351   -1.9675 O.2     1  UNL1       -0.2502
     10 C          -5.3963    3.1468   -0.7106 C.3     1  UNL1        0.1418
     11 C          -5.3255    2.8082    0.7427 C.2     1  UNL1        0.3155
     12 O          -6.4793    2.4327    1.4233 O.3     1  UNL1       -0.4802
     13 O          -4.2158    2.8158    1.3400 O.2     1  UNL1       -0.2504
     14 O          -2.6033   -0.5807   -0.2904 O.3     1  UNL1       -0.3302
     15 C          -2.2727   -1.6105    0.6253 C.3     1  UNL1        0.2308
     16 O          -1.1763   -1.1807    1.4309 O.3     1  UNL1       -0.4606
     17 C           0.1148   -0.9087    0.9513 C.ar    1  UNL1        0.1310
     18 C           0.4719   -1.0749   -0.3989 C.ar    1  UNL1        0.0226
     19 C           1.7732   -0.7888   -0.8374 C.ar    1  UNL1        0.1347
     20 O           2.0927   -0.9644   -2.1846 O.3     1  UNL1       -0.5058
     21 C           2.7421   -0.3296    0.0859 C.ar    1  UNL1        0.1060
     22 C           2.3753   -0.1670    1.4426 C.ar    1  UNL1        0.1454
     23 O           3.2597    0.2637    2.3348 O.2     1  UNL1       -0.4618
     24 C           4.5143    0.5583    2.0197 C.ar    1  UNL1        0.1038
     25 C           4.9759    0.4256    0.7027 C.ar    1  UNL1        0.0644
     26 C           4.0696   -0.0169   -0.2803 C.ar    1  UNL1        0.2037
     27 O           4.4451   -0.1107   -1.4813 O.2     1  UNL1       -0.2863
     28 C           6.3871    0.7549    0.3786 C.ar    1  UNL1       -0.0110
     29 C           6.9554    1.9597    0.8287 C.ar    1  UNL1       -0.0504
     30 C           8.2864    2.2684    0.5323 C.ar    1  UNL1       -0.0196
     31 C           9.0674    1.3748   -0.2122 C.ar    1  UNL1        0.1169
     32 O          10.3946    1.6717   -0.5135 O.3     1  UNL1       -0.5068
     33 C           8.5109    0.1717   -0.6565 C.ar    1  UNL1       -0.0196
     34 C           7.1799   -0.1396   -0.3623 C.ar    1  UNL1       -0.0504
     35 C           1.0738   -0.4569    1.8604 C.ar    1  UNL1        0.0234
     36 C          -3.4746   -1.9073    1.5427 C.3     1  UNL1        0.1454
     37 O          -3.1575   -2.9105    2.4758 O.3     1  UNL1       -0.3829
     38 H          -5.7929   -3.2564    1.9904 H       1  UNL1        0.2100
     39 H          -4.5137   -3.2927    0.2096 H       1  UNL1        0.0648
     40 H          -5.2621   -0.3074    0.0736 H       1  UNL1        0.0647
     41 H          -6.8043   -1.5401   -0.8642 H       1  UNL1        0.2100
     42 H          -3.3162   -1.9557   -1.6900 H       1  UNL1        0.0658
     43 H          -4.5915   -0.2315   -2.9939 H       1  UNL1        0.0724
     44 H          -2.8399    0.0821   -2.8657 H       1  UNL1        0.0724
     45 H          -6.3627    3.6501   -0.9293 H       1  UNL1        0.0493
     46 H          -4.5751    3.8459   -0.9784 H       1  UNL1        0.0493
     47 H          -6.4443    2.1772    2.4030 H       1  UNL1        0.2951
     48 H          -1.9729   -2.5424    0.0903 H       1  UNL1        0.1084
     49 H          -0.2526   -1.4273   -1.1200 H       1  UNL1        0.0691
     50 H           1.4091   -1.2923   -2.8571 H       1  UNL1        0.2922
     51 H           5.1821    0.8966    2.8018 H       1  UNL1        0.1037
     52 H           6.3650    2.6667    1.3984 H       1  UNL1        0.0625
     53 H           8.7091    3.2022    0.8806 H       1  UNL1        0.0654
     54 H          10.8271    2.5349   -0.2055 H       1  UNL1        0.2921
     55 H           9.1119   -0.5253   -1.2267 H       1  UNL1        0.0654
     56 H           6.7745   -1.0856   -0.6992 H       1  UNL1        0.0625
     57 H           0.8039   -0.3281    2.9016 H       1  UNL1        0.0691
     58 H          -3.7193   -0.9793    2.1063 H       1  UNL1        0.0683
     59 H          -2.9299   -3.7333    1.9684 H       1  UNL1        0.2102
@<TRIPOS>BOND
     1     1     2    1
     2     2     3    1
     3     3     4    1
     4     3     5    1
     5     5     6    1
     6     6     7    1
     7     7     8    1
     8     8     9    2
     9     8    10    1
    10    10    11    1
    11    11    12    1
    12    11    13    2
    13     5    14    1
    14    14    15    1
    15    15    16    1
    16    16    17    1
    17    17    18   ar
    18    18    19   ar
    19    19    20    1
    20    19    21   ar
    21    21    22   ar
    22    22    23   ar
    23    23    24   ar
    24    24    25   ar
    25    25    26   ar
    26    26    27    2
    27    25    28    1
    28    28    29   ar
    29    29    30   ar
    30    30    31   ar
    31    31    32    1
    32    31    33   ar
    33    33    34   ar
    34    22    35   ar
    35    15    36    1
    36    36    37    1
    37    36     2    1
    38    35    17   ar
    39    26    21   ar
    40    34    28   ar
    41     1    38    1
    42     2    39    1
    43     3    40    1
    44     4    41    1
    45     5    42    1
    46     6    43    1
    47     6    44    1
    48    10    45    1
    49    10    46    1
    50    12    47    1
    51    15    48    1
    52    18    49    1
    53    20    50    1
    54    24    51    1
    55    29    52    1
    56    30    53    1
    57    32    54    1
    58    33    55    1
    59    34    56    1
    60    35    57    1
    61    36    58    1
    62    37    59    1
