@<TRIPOS>MOLECULE
Daidzin
 50 53 0 0 0
SMALL
GASTEIGER

@<TRIPOS>ATOM
      1 O          -4.0756   -1.9567   -1.8254 O.3     1  UNL1       -0.3924
      2 C          -4.0804   -2.2892   -0.4608 C.3     1  UNL1        0.0731
      3 C          -4.2353   -1.0321    0.4057 C.3     1  UNL1        0.1140
      4 O          -3.2467   -0.0898    0.0338 O.3     1  UNL1       -0.3313
      5 C          -3.1277    0.9158    1.0290 C.3     1  UNL1        0.2308
      6 O          -2.1831    1.8896    0.5833 O.3     1  UNL1       -0.4607
      7 C          -0.8218    1.6421    0.3447 C.ar    1  UNL1        0.1275
      8 C          -0.2286    0.3844    0.5688 C.ar    1  UNL1        0.0232
      9 C           1.1329    0.1886    0.3126 C.ar    1  UNL1        0.1419
     10 C           1.9224    1.2539   -0.1723 C.ar    1  UNL1        0.0648
     11 C           1.3275    2.5085   -0.3906 C.ar    1  UNL1       -0.0439
     12 C          -0.0332    2.6950   -0.1327 C.ar    1  UNL1       -0.0189
     13 C           3.2870    1.0190   -0.4150 C.ar    1  UNL1        0.2001
     14 O           4.0317    1.9545   -0.8199 O.2     1  UNL1       -0.2864
     15 C           3.8204   -0.2632   -0.1811 C.ar    1  UNL1        0.0643
     16 C           2.9600   -1.2600    0.3065 C.ar    1  UNL1        0.1038
     17 O           1.6760   -1.0041    0.5302 O.2     1  UNL1       -0.4620
     18 C           5.2502   -0.5765   -0.4301 C.ar    1  UNL1       -0.0110
     19 C           6.0075   -1.2533    0.5423 C.ar    1  UNL1       -0.0504
     20 C           7.3518   -1.5571    0.3070 C.ar    1  UNL1       -0.0196
     21 C           7.9542   -1.1937   -0.9044 C.ar    1  UNL1        0.1169
     22 O           9.2928   -1.4912   -1.1498 O.3     1  UNL1       -0.5068
     23 C           7.2051   -0.5271   -1.8786 C.ar    1  UNL1       -0.0196
     24 C           5.8607   -0.2212   -1.6461 C.ar    1  UNL1       -0.0504
     25 C          -4.4878    1.6241    1.3105 C.3     1  UNL1        0.1454
     26 O          -4.8731    1.4710    2.6553 O.3     1  UNL1       -0.3829
     27 C          -5.6050    1.1330    0.3594 C.3     1  UNL1        0.1152
     28 O          -5.3779    1.6463   -0.9301 O.3     1  UNL1       -0.3864
     29 C          -5.6542   -0.4133    0.2781 C.3     1  UNL1        0.1120
     30 O          -6.4737   -0.9293    1.2970 O.3     1  UNL1       -0.3865
     31 H          -4.9654   -2.2011   -2.1909 H       1  UNL1        0.2095
     32 H          -4.8842   -3.0241   -0.2184 H       1  UNL1        0.0584
     33 H          -3.1097   -2.7721   -0.2181 H       1  UNL1        0.0584
     34 H          -4.0702   -1.3661    1.4587 H       1  UNL1        0.0647
     35 H          -2.7351    0.4716    1.9732 H       1  UNL1        0.1084
     36 H          -0.8103   -0.4474    0.9418 H       1  UNL1        0.0691
     37 H           1.9088    3.3443   -0.7603 H       1  UNL1        0.0627
     38 H          -0.4798    3.6659   -0.3064 H       1  UNL1        0.0654
     39 H           3.3333   -2.2577    0.4988 H       1  UNL1        0.1037
     40 H           5.5617   -1.5349    1.4883 H       1  UNL1        0.0625
     41 H           7.9242   -2.0736    1.0670 H       1  UNL1        0.0654
     42 H           9.8621   -1.9737   -0.4643 H       1  UNL1        0.2921
     43 H           7.6640   -0.2497   -2.8191 H       1  UNL1        0.0654
     44 H           5.2936    0.2776   -2.4221 H       1  UNL1        0.0625
     45 H          -4.3664    2.7176    1.1445 H       1  UNL1        0.0683
     46 H          -4.9415    0.5005    2.8470 H       1  UNL1        0.2102
     47 H          -6.5894    1.5080    0.7279 H       1  UNL1        0.0648
     48 H          -5.6602    2.5983   -0.9178 H       1  UNL1        0.2100
     49 H          -6.0975   -0.6865   -0.7085 H       1  UNL1        0.0647
     50 H          -7.4144   -0.7652    1.0244 H       1  UNL1        0.2100
@<TRIPOS>BOND
     1     1     2    1
     2     2     3    1
     3     3     4    1
     4     4     5    1
     5     5     6    1
     6     6     7    1
     7     7     8   ar
     8     8     9   ar
     9     9    10   ar
    10    10    11   ar
    11    11    12   ar
    12    10    13   ar
    13    13    14    2
    14    13    15   ar
    15    15    16   ar
    16    16    17   ar
    17    15    18    1
    18    18    19   ar
    19    19    20   ar
    20    20    21   ar
    21    21    22    1
    22    21    23   ar
    23    23    24   ar
    24     5    25    1
    25    25    26    1
    26    25    27    1
    27    27    28    1
    28    27    29    1
    29    29    30    1
    30    29     3    1
    31    12     7   ar
    32    24    18   ar
    33    17     9   ar
    34     1    31    1
    35     2    32    1
    36     2    33    1
    37     3    34    1
    38     5    35    1
    39     8    36    1
    40    11    37    1
    41    12    38    1
    42    16    39    1
    43    19    40    1
    44    20    41    1
    45    22    42    1
    46    23    43    1
    47    24    44    1
    48    25    45    1
    49    26    46    1
    50    27    47    1
    51    28    48    1
    52    29    49    1
    53    30    50    1
