@<TRIPOS>MOLECULE
Genistin
 51 54 0 0 0
SMALL
GASTEIGER

@<TRIPOS>ATOM
      1 O          -5.6539   -3.2753   -0.4426 O.3     1  UNL1       -0.3924
      2 C          -5.3294   -2.0086   -0.9488 C.3     1  UNL1        0.0731
      3 C          -5.4251   -0.9456    0.1591 C.3     1  UNL1        0.1140
      4 O          -4.6177   -1.3034    1.2814 O.3     1  UNL1       -0.3313
      5 C          -3.3479   -0.6721    1.3007 C.3     1  UNL1        0.2308
      6 O          -2.6040   -1.0268    0.1291 O.3     1  UNL1       -0.4606
      7 C          -1.2216   -0.8597   -0.0547 C.ar    1  UNL1        0.1310
      8 C          -0.6818   -1.1935   -1.2969 C.ar    1  UNL1        0.0226
      9 C           0.6880   -1.0706   -1.5562 C.ar    1  UNL1        0.1347
     10 O           1.1322   -1.5296   -2.7996 O.3     1  UNL1       -0.5058
     11 C           1.5474   -0.5279   -0.5568 C.ar    1  UNL1        0.1060
     12 C           2.9209   -0.2380   -0.7512 C.ar    1  UNL1        0.2037
     13 O           3.4558   -0.3477   -1.8863 O.2     1  UNL1       -0.2863
     14 C           3.6941    0.2399    0.3247 C.ar    1  UNL1        0.0644
     15 C           3.0573    0.4734    1.5487 C.ar    1  UNL1        0.1038
     16 O           1.7589    0.2528    1.6912 O.2     1  UNL1       -0.4618
     17 C           0.9941   -0.2166    0.7125 C.ar    1  UNL1        0.1454
     18 C          -0.3708   -0.3883    0.9558 C.ar    1  UNL1        0.0234
     19 C           5.1468    0.5170    0.1847 C.ar    1  UNL1       -0.0110
     20 C           5.6869    1.7299    0.6481 C.ar    1  UNL1       -0.0504
     21 C           7.0554    1.9883    0.5240 C.ar    1  UNL1       -0.0196
     22 C           7.9012    1.0394   -0.0581 C.ar    1  UNL1        0.1169
     23 O           9.2625    1.3107   -0.1750 O.3     1  UNL1       -0.5068
     24 C           7.3724   -0.1742   -0.5164 C.ar    1  UNL1       -0.0196
     25 C           6.0043   -0.4354   -0.3944 C.ar    1  UNL1       -0.0504
     26 C          -3.4854    0.8697    1.4431 C.3     1  UNL1        0.1454
     27 O          -3.5132    1.2252    2.8020 O.3     1  UNL1       -0.3829
     28 C          -4.7679    1.4002    0.7653 C.3     1  UNL1        0.1152
     29 O          -4.5575    2.7038    0.2865 O.3     1  UNL1       -0.3864
     30 C          -5.1727    0.4833   -0.3935 C.3     1  UNL1        0.1120
     31 O          -6.3454    0.9609   -1.0038 O.3     1  UNL1       -0.3865
     32 H          -4.8342   -3.6267   -0.0064 H       1  UNL1        0.2095
     33 H          -4.3178   -2.0219   -1.4122 H       1  UNL1        0.0584
     34 H          -6.0541   -1.7608   -1.7536 H       1  UNL1        0.0584
     35 H          -6.4761   -0.9673    0.5248 H       1  UNL1        0.0647
     36 H          -2.8113   -1.0768    2.1854 H       1  UNL1        0.1084
     37 H          -1.3351   -1.5851   -2.0673 H       1  UNL1        0.0691
     38 H           2.0866   -1.7811   -3.0097 H       1  UNL1        0.2922
     39 H           3.6197    0.8402    2.3979 H       1  UNL1        0.1037
     40 H          -0.7556   -0.1347    1.9332 H       1  UNL1        0.0691
     41 H           5.0475    2.4818    1.0939 H       1  UNL1        0.0625
     42 H           7.4588    2.9279    0.8797 H       1  UNL1        0.0654
     43 H           9.9013    0.6435   -0.5917 H       1  UNL1        0.2921
     44 H           8.0208   -0.9172   -0.9631 H       1  UNL1        0.0654
     45 H           5.6179   -1.3870   -0.7380 H       1  UNL1        0.0625
     46 H          -2.6088    1.3567    0.9548 H       1  UNL1        0.0683
     47 H          -2.5769    1.1882    3.1302 H       1  UNL1        0.2102
     48 H          -5.6078    1.4067    1.5016 H       1  UNL1        0.0648
     49 H          -4.5428    3.2998    1.0804 H       1  UNL1        0.2100
     50 H          -4.3428    0.4564   -1.1407 H       1  UNL1        0.0647
     51 H          -6.0732    1.6764   -1.6360 H       1  UNL1        0.2100
@<TRIPOS>BOND
     1     1     2    1
     2     2     3    1
     3     3     4    1
     4     4     5    1
     5     5     6    1
     6     6     7    1
     7     7     8   ar
     8     8     9   ar
     9     9    10    1
    10     9    11   ar
    11    11    12   ar
    12    12    13    2
    13    12    14   ar
    14    14    15   ar
    15    15    16   ar
    16    16    17   ar
    17    17    18   ar
    18    14    19    1
    19    19    20   ar
    20    20    21   ar
    21    21    22   ar
    22    22    23    1
    23    22    24   ar
    24    24    25   ar
    25     5    26    1
    26    26    27    1
    27    26    28    1
    28    28    29    1
    29    28    30    1
    30    30    31    1
    31    30     3    1
    32    18     7   ar
    33    25    19   ar
    34    17    11   ar
    35     1    32    1
    36     2    33    1
    37     2    34    1
    38     3    35    1
    39     5    36    1
    40     8    37    1
    41    10    38    1
    42    15    39    1
    43    18    40    1
    44    20    41    1
    45    21    42    1
    46    23    43    1
    47    24    44    1
    48    25    45    1
    49    26    46    1
    50    27    47    1
    51    28    48    1
    52    29    49    1
    53    30    50    1
    54    31    51    1
