@<TRIPOS>MOLECULE
6''-O-Acetylgenistin
 56 59 0 0 0
SMALL
GASTEIGER

@<TRIPOS>ATOM
      1 C          -7.7193    2.4370    0.8154 C.3     1  UNL1        0.0332
      2 C          -6.2628    2.1487    0.6845 C.2     1  UNL1        0.3040
      3 O          -5.5942    2.7132   -0.2235 O.2     1  UNL1       -0.2512
      4 O          -5.6649    1.2221    1.5459 O.3     1  UNL1       -0.4621
      5 C          -4.3030    0.8099    1.4349 C.3     1  UNL1        0.1212
      6 C          -4.1099   -0.1634    0.2627 C.3     1  UNL1        0.1250
      7 O          -2.7495   -0.5442    0.2120 O.3     1  UNL1       -0.3302
      8 C          -2.4389   -1.1410   -1.0410 C.3     1  UNL1        0.2308
      9 O          -1.1476   -1.7437   -0.9496 O.3     1  UNL1       -0.4606
     10 C           0.0521   -1.0520   -0.7176 C.ar    1  UNL1        0.1310
     11 C           0.1090    0.3480   -0.5947 C.ar    1  UNL1        0.0226
     12 C           1.3295    0.9988   -0.3609 C.ar    1  UNL1        0.1347
     13 O           1.3487    2.3893   -0.2412 O.3     1  UNL1       -0.5058
     14 C           2.5202    0.2428   -0.2483 C.ar    1  UNL1        0.1060
     15 C           2.4548   -1.1646   -0.3762 C.ar    1  UNL1        0.1454
     16 O           3.5538   -1.9039   -0.2786 O.2     1  UNL1       -0.4618
     17 C           4.7536   -1.3833   -0.0562 C.ar    1  UNL1        0.1038
     18 C           4.9218    0.0008    0.0901 C.ar    1  UNL1        0.0644
     19 C           3.7856    0.8259   -0.0177 C.ar    1  UNL1        0.2037
     20 O           3.9104    2.0783    0.0720 O.2     1  UNL1       -0.2863
     21 C           6.2746    0.5568    0.3463 C.ar    1  UNL1       -0.0110
     22 C           7.3679    0.1527   -0.4402 C.ar    1  UNL1       -0.0504
     23 C           8.6444    0.6681   -0.1957 C.ar    1  UNL1       -0.0196
     24 C           8.8452    1.5887    0.8411 C.ar    1  UNL1        0.1169
     25 O          10.1125    2.1088    1.0940 O.3     1  UNL1       -0.5068
     26 C           7.7639    1.9890    1.6318 C.ar    1  UNL1       -0.0196
     27 C           6.4861    1.4760    1.3893 C.ar    1  UNL1       -0.0504
     28 C           1.2296   -1.7950   -0.6085 C.ar    1  UNL1        0.0234
     29 C          -3.4681   -2.2284   -1.4703 C.3     1  UNL1        0.1454
     30 O          -4.2706   -1.7254   -2.5089 O.3     1  UNL1       -0.3829
     31 C          -4.3534   -2.6598   -0.2781 C.3     1  UNL1        0.1152
     32 O          -3.5699   -3.3654    0.6522 O.3     1  UNL1       -0.3864
     33 C          -4.9916   -1.4319    0.4238 C.3     1  UNL1        0.1130
     34 O          -6.2966   -1.1986   -0.0478 O.3     1  UNL1       -0.3864
     35 H          -8.2865    1.7991    0.1062 H       1  UNL1        0.0342
     36 H          -8.0570    2.2203    1.8504 H       1  UNL1        0.0342
     37 H          -7.9191    3.5057    0.5892 H       1  UNL1        0.0342
     38 H          -3.6466    1.6983    1.3050 H       1  UNL1        0.0724
     39 H          -4.0045    0.3124    2.3824 H       1  UNL1        0.0724
     40 H          -4.3884    0.3840   -0.6689 H       1  UNL1        0.0658
     41 H          -2.3939   -0.3521   -1.8269 H       1  UNL1        0.1084
     42 H          -0.7883    0.9450   -0.6797 H       1  UNL1        0.0691
     43 H           0.5039    2.9436   -0.3185 H       1  UNL1        0.2922
     44 H           5.6042   -2.0486    0.0194 H       1  UNL1        0.1037
     45 H           7.2307   -0.5517   -1.2514 H       1  UNL1        0.0625
     46 H           9.4758    0.3522   -0.8128 H       1  UNL1        0.0654
     47 H          10.9162    1.8381    0.5392 H       1  UNL1        0.2921
     48 H           7.9149    2.6953    2.4383 H       1  UNL1        0.0654
     49 H           5.6663    1.7844    2.0261 H       1  UNL1        0.0625
     50 H           1.1913   -2.8733   -0.7041 H       1  UNL1        0.0691
     51 H          -2.9174   -3.1214   -1.8510 H       1  UNL1        0.0683
     52 H          -4.7214   -2.5038   -2.9295 H       1  UNL1        0.2102
     53 H          -5.1673   -3.3298   -0.6437 H       1  UNL1        0.0648
     54 H          -3.4152   -4.2701    0.2732 H       1  UNL1        0.2100
     55 H          -5.0810   -1.6769    1.5059 H       1  UNL1        0.0647
     56 H          -6.2401   -1.0047   -1.0189 H       1  UNL1        0.2100
@<TRIPOS>BOND
     1     1     2    1
     2     2     3    2
     3     2     4    1
     4     4     5    1
     5     5     6    1
     6     6     7    1
     7     7     8    1
     8     8     9    1
     9     9    10    1
    10    10    11   ar
    11    11    12   ar
    12    12    13    1
    13    12    14   ar
    14    14    15   ar
    15    15    16   ar
    16    16    17   ar
    17    17    18   ar
    18    18    19   ar
    19    19    20    2
    20    18    21    1
    21    21    22   ar
    22    22    23   ar
    23    23    24   ar
    24    24    25    1
    25    24    26   ar
    26    26    27   ar
    27    15    28   ar
    28     8    29    1
    29    29    30    1
    30    29    31    1
    31    31    32    1
    32    31    33    1
    33    33    34    1
    34    33     6    1
    35    28    10   ar
    36    19    14   ar
    37    27    21   ar
    38     1    35    1
    39     1    36    1
    40     1    37    1
    41     5    38    1
    42     5    39    1
    43     6    40    1
    44     8    41    1
    45    11    42    1
    46    13    43    1
    47    17    44    1
    48    22    45    1
    49    23    46    1
    50    25    47    1
    51    26    48    1
    52    27    49    1
    53    28    50    1
    54    29    51    1
    55    30    52    1
    56    31    53    1
    57    32    54    1
    58    33    55    1
    59    34    56    1
