@<TRIPOS>MOLECULE
6''-O-Acetylglycitin
 59 62 0 0 0
SMALL
GASTEIGER

@<TRIPOS>ATOM
      1 C           0.1585    4.3821   -0.3960 C.3     1  UNL1        0.0790
      2 O          -0.3024    3.0362   -0.4573 O.3     1  UNL1       -0.4914
      3 C           0.5138    1.9051   -0.2944 C.ar    1  UNL1        0.1625
      4 C           1.8968    2.0119   -0.0490 C.ar    1  UNL1       -0.0019
      5 C           2.6833    0.8584    0.1101 C.ar    1  UNL1        0.0682
      6 C           2.0778   -0.4109    0.0142 C.ar    1  UNL1        0.1421
      7 O           2.8048   -1.5143    0.1530 O.2     1  UNL1       -0.4620
      8 C           4.1113   -1.4888    0.3898 C.ar    1  UNL1        0.1038
      9 C           4.7990   -0.2707    0.5075 C.ar    1  UNL1        0.0643
     10 C           4.0670    0.9226    0.3549 C.ar    1  UNL1        0.2003
     11 O           4.6518    2.0397    0.4173 O.2     1  UNL1       -0.2864
     12 C           6.2584   -0.2678    0.7802 C.ar    1  UNL1       -0.0110
     13 C           7.1208   -1.0904    0.0340 C.ar    1  UNL1       -0.0504
     14 C           8.4945   -1.0959    0.2942 C.ar    1  UNL1       -0.0196
     15 C           9.0230   -0.2865    1.3042 C.ar    1  UNL1        0.1169
     16 O          10.3937   -0.3023    1.5522 O.3     1  UNL1       -0.5068
     17 C           8.1699    0.5305    2.0574 C.ar    1  UNL1       -0.0196
     18 C           6.7958    0.5388    1.7991 C.ar    1  UNL1       -0.0504
     19 C           0.7068   -0.5164   -0.2308 C.ar    1  UNL1        0.0268
     20 C          -0.0854    0.6382   -0.3779 C.ar    1  UNL1        0.1689
     21 O          -1.4688    0.5810   -0.6235 O.3     1  UNL1       -0.4570
     22 C          -2.3055   -0.5718   -0.5009 C.3     1  UNL1        0.2310
     23 O          -3.5293   -0.2867   -1.1523 O.3     1  UNL1       -0.3302
     24 C          -4.3128   -1.4647   -1.2785 C.3     1  UNL1        0.1250
     25 C          -5.6345   -1.0951   -1.9616 C.3     1  UNL1        0.1212
     26 O          -6.3440   -0.1406   -1.1769 O.3     1  UNL1       -0.4621
     27 C          -7.5856    0.3755   -1.5558 C.2     1  UNL1        0.3040
     28 C          -8.2766    1.3523   -0.6668 C.3     1  UNL1        0.0332
     29 O          -8.1450   -0.0061   -2.6196 O.2     1  UNL1       -0.2512
     30 C          -4.5566   -2.1657    0.0960 C.3     1  UNL1        0.1130
     31 O          -3.9113   -3.4149    0.0963 O.3     1  UNL1       -0.3864
     32 C          -4.0224   -1.3027    1.2565 C.3     1  UNL1        0.1152
     33 O          -4.8329   -0.1615    1.3894 O.3     1  UNL1       -0.3864
     34 C          -2.5558   -0.8849    1.0005 C.3     1  UNL1        0.1454
     35 O          -1.7068   -1.9263    1.4157 O.3     1  UNL1       -0.3829
     36 H           0.5941    4.5915    0.6039 H       1  UNL1        0.0660
     37 H           0.9141    4.5636   -1.1893 H       1  UNL1        0.0660
     38 H          -0.6990    5.0663   -0.5596 H       1  UNL1        0.0660
     39 H           2.3598    2.9871    0.0194 H       1  UNL1        0.0663
     40 H           4.6392   -2.4274    0.4999 H       1  UNL1        0.1037
     41 H           6.7324   -1.7184   -0.7584 H       1  UNL1        0.0625
     42 H           9.1493   -1.7293   -0.2907 H       1  UNL1        0.0654
     43 H          10.8071    0.2723    2.2773 H       1  UNL1        0.2921
     44 H           8.5695    1.1556    2.8457 H       1  UNL1        0.0654
     45 H           6.1509    1.1623    2.4058 H       1  UNL1        0.0625
     46 H           0.2790   -1.5042   -0.3131 H       1  UNL1        0.0692
     47 H          -1.8132   -1.4304   -1.0129 H       1  UNL1        0.1084
     48 H          -3.7987   -2.1707   -1.9723 H       1  UNL1        0.0658
     49 H          -5.4199   -0.6629   -2.9636 H       1  UNL1        0.0724
     50 H          -6.2556   -2.0076   -2.0993 H       1  UNL1        0.0724
     51 H          -7.5386    1.8481   -0.0018 H       1  UNL1        0.0342
     52 H          -8.7874    2.1270   -1.2766 H       1  UNL1        0.0342
     53 H          -9.0265    0.8204   -0.0453 H       1  UNL1        0.0342
     54 H          -5.6488   -2.3297    0.2596 H       1  UNL1        0.0647
     55 H          -4.2970   -3.9414    0.8447 H       1  UNL1        0.2100
     56 H          -4.0813   -1.8984    2.1987 H       1  UNL1        0.0648
     57 H          -4.6774    0.1995    2.3013 H       1  UNL1        0.2100
     58 H          -2.3581    0.0337    1.6060 H       1  UNL1        0.0683
     59 H          -0.9453   -1.5142    1.9011 H       1  UNL1        0.2102
@<TRIPOS>BOND
     1     1     2    1
     2     2     3    1
     3     3     4   ar
     4     4     5   ar
     5     5     6   ar
     6     6     7   ar
     7     7     8   ar
     8     8     9   ar
     9     9    10   ar
    10    10    11    2
    11     9    12    1
    12    12    13   ar
    13    13    14   ar
    14    14    15   ar
    15    15    16    1
    16    15    17   ar
    17    17    18   ar
    18     6    19   ar
    19    19    20   ar
    20    20    21    1
    21    21    22    1
    22    22    23    1
    23    23    24    1
    24    24    25    1
    25    25    26    1
    26    26    27    1
    27    27    28    1
    28    27    29    2
    29    24    30    1
    30    30    31    1
    31    30    32    1
    32    32    33    1
    33    32    34    1
    34    34    35    1
    35    20     3   ar
    36    34    22    1
    37    10     5   ar
    38    18    12   ar
    39     1    36    1
    40     1    37    1
    41     1    38    1
    42     4    39    1
    43     8    40    1
    44    13    41    1
    45    14    42    1
    46    16    43    1
    47    17    44    1
    48    18    45    1
    49    19    46    1
    50    22    47    1
    51    24    48    1
    52    25    49    1
    53    25    50    1
    54    28    51    1
    55    28    52    1
    56    28    53    1
    57    30    54    1
    58    31    55    1
    59    32    56    1
    60    33    57    1
    61    34    58    1
    62    35    59    1
