@<TRIPOS>MOLECULE
6''-O-Malonyldaidzin
 58 61 0 0 0
SMALL
GASTEIGER

@<TRIPOS>ATOM
      1 O          -4.4744    2.9806    0.7450 O.3     1  UNL1       -0.3864
      2 C          -4.1612    2.2421    1.8998 C.3     1  UNL1        0.1152
      3 C          -4.2452    0.7417    1.5674 C.3     1  UNL1        0.1130
      4 O          -4.1692    0.0048    2.7613 O.3     1  UNL1       -0.3864
      5 C          -3.0873    0.3155    0.6020 C.3     1  UNL1        0.1250
      6 C          -3.6270   -0.0339   -0.7880 C.3     1  UNL1        0.1212
      7 O          -4.4893   -1.1647   -0.7043 O.3     1  UNL1       -0.4616
      8 C          -5.1605   -1.6865   -1.8131 C.2     1  UNL1        0.3180
      9 O          -5.0209   -1.1672   -2.9542 O.2     1  UNL1       -0.2502
     10 C          -6.0878   -2.8424   -1.6294 C.3     1  UNL1        0.1418
     11 C          -7.3847   -2.3642   -1.0632 C.2     1  UNL1        0.3155
     12 O          -7.5164   -2.1857    0.3105 O.3     1  UNL1       -0.4802
     13 O          -8.3444   -2.0839   -1.8302 O.2     1  UNL1       -0.2504
     14 O          -2.1067    1.3316    0.4513 O.3     1  UNL1       -0.3302
     15 C          -1.6558    1.7670    1.7202 C.3     1  UNL1        0.2308
     16 O          -0.4787    2.5568    1.5554 O.3     1  UNL1       -0.4607
     17 C           0.7457    2.0799    1.0615 C.ar    1  UNL1        0.1275
     18 C           0.9466    0.7317    0.7068 C.ar    1  UNL1        0.0232
     19 C           2.1861    0.3061    0.2169 C.ar    1  UNL1        0.1419
     20 C           3.2465    1.2278    0.0777 C.ar    1  UNL1        0.0648
     21 C           3.0422    2.5721    0.4336 C.ar    1  UNL1       -0.0439
     22 C           1.8008    2.9886    0.9218 C.ar    1  UNL1       -0.0189
     23 C           4.4759    0.7630   -0.4211 C.ar    1  UNL1        0.2001
     24 O           5.4382    1.5628   -0.5884 O.2     1  UNL1       -0.2864
     25 C           4.6173   -0.5983   -0.7534 C.ar    1  UNL1        0.0643
     26 C           3.5061   -1.4402   -0.5859 C.ar    1  UNL1        0.1038
     27 O           2.3565   -0.9684   -0.1168 O.2     1  UNL1       -0.4620
     28 C           5.8934   -1.1514   -1.2729 C.ar    1  UNL1       -0.0110
     29 C           7.1103   -0.8795   -0.6224 C.ar    1  UNL1       -0.0504
     30 C           8.3077   -1.4108   -1.1111 C.ar    1  UNL1       -0.0196
     31 C           8.3037   -2.2233   -2.2523 C.ar    1  UNL1        0.1169
     32 O           9.4908   -2.7575   -2.7484 O.3     1  UNL1       -0.5068
     33 C           7.0967   -2.5032   -2.8998 C.ar    1  UNL1       -0.0196
     34 C           5.8975   -1.9740   -2.4133 C.ar    1  UNL1       -0.0504
     35 C          -2.7478    2.6234    2.4047 C.3     1  UNL1        0.1454
     36 O          -2.6875    2.4491    3.7972 O.3     1  UNL1       -0.3829
     37 H          -4.7266    3.8930    1.0451 H       1  UNL1        0.2100
     38 H          -4.9159    2.4692    2.6905 H       1  UNL1        0.0648
     39 H          -5.2443    0.5606    1.1036 H       1  UNL1        0.0647
     40 H          -4.4917   -0.9109    2.5523 H       1  UNL1        0.2100
     41 H          -2.5916   -0.6059    0.9880 H       1  UNL1        0.0658
     42 H          -4.1809    0.8351   -1.2068 H       1  UNL1        0.0724
     43 H          -2.7764   -0.2726   -1.4637 H       1  UNL1        0.0724
     44 H          -6.2613   -3.3544   -2.6011 H       1  UNL1        0.0493
     45 H          -5.6281   -3.5751   -0.9327 H       1  UNL1        0.0493
     46 H          -8.3828   -1.8445    0.7094 H       1  UNL1        0.2951
     47 H          -1.4015    0.8979    2.3743 H       1  UNL1        0.1084
     48 H           0.1517    0.0054    0.8064 H       1  UNL1        0.0691
     49 H           3.8372    3.3013    0.3369 H       1  UNL1        0.0627
     50 H           1.6561    4.0268    1.1927 H       1  UNL1        0.0654
     51 H           3.5760   -2.4923   -0.8306 H       1  UNL1        0.1037
     52 H           7.1322   -0.2702    0.2725 H       1  UNL1        0.0625
     53 H           9.2368   -1.1941   -0.5995 H       1  UNL1        0.0654
     54 H          10.3815   -2.5737   -2.3015 H       1  UNL1        0.2921
     55 H           7.0880   -3.1307   -3.7820 H       1  UNL1        0.0654
     56 H           4.9743   -2.1959   -2.9343 H       1  UNL1        0.0625
     57 H          -2.5787    3.7011    2.1691 H       1  UNL1        0.0683
     58 H          -1.8711    2.9205    4.1094 H       1  UNL1        0.2102
@<TRIPOS>BOND
     1     1     2    1
     2     2     3    1
     3     3     4    1
     4     3     5    1
     5     5     6    1
     6     6     7    1
     7     7     8    1
     8     8     9    2
     9     8    10    1
    10    10    11    1
    11    11    12    1
    12    11    13    2
    13     5    14    1
    14    14    15    1
    15    15    16    1
    16    16    17    1
    17    17    18   ar
    18    18    19   ar
    19    19    20   ar
    20    20    21   ar
    21    21    22   ar
    22    20    23   ar
    23    23    24    2
    24    23    25   ar
    25    25    26   ar
    26    26    27   ar
    27    25    28    1
    28    28    29   ar
    29    29    30   ar
    30    30    31   ar
    31    31    32    1
    32    31    33   ar
    33    33    34   ar
    34    15    35    1
    35    35    36    1
    36    35     2    1
    37    22    17   ar
    38    34    28   ar
    39    27    19   ar
    40     1    37    1
    41     2    38    1
    42     3    39    1
    43     4    40    1
    44     5    41    1
    45     6    42    1
    46     6    43    1
    47    10    44    1
    48    10    45    1
    49    12    46    1
    50    15    47    1
    51    18    48    1
    52    21    49    1
    53    22    50    1
    54    26    51    1
    55    29    52    1
    56    30    53    1
    57    32    54    1
    58    33    55    1
    59    34    56    1
    60    35    57    1
    61    36    58    1
