@<TRIPOS>MOLECULE
6''-O-Malonylglycitin
 62 65 0 0 0
SMALL
GASTEIGER

@<TRIPOS>ATOM
      1 C           0.1401   -0.7447   -3.5340 C.3     1  UNL1        0.0790
      2 O          -0.2435   -0.5296   -2.1796 O.3     1  UNL1       -0.4914
      3 C           0.6266   -0.1665   -1.1413 C.ar    1  UNL1        0.1625
      4 C           0.1305   -0.0093    0.1794 C.ar    1  UNL1        0.1689
      5 O          -1.2076   -0.2307    0.5623 O.3     1  UNL1       -0.4570
      6 C          -2.1938   -1.0542   -0.0685 C.3     1  UNL1        0.2310
      7 O          -3.4324   -0.7811    0.5625 O.3     1  UNL1       -0.3302
      8 C          -4.4951   -1.4596   -0.0872 C.3     1  UNL1        0.1250
      9 C          -5.8160   -0.9820    0.5242 C.3     1  UNL1        0.1212
     10 O          -5.9222    0.4314    0.3838 O.3     1  UNL1       -0.4616
     11 C          -7.0131    1.1581    0.8683 C.2     1  UNL1        0.3180
     12 O          -7.9584    0.5776    1.4690 O.2     1  UNL1       -0.2502
     13 C          -7.0323    2.6432    0.7118 C.3     1  UNL1        0.1418
     14 C          -6.2411    3.2786    1.8079 C.2     1  UNL1        0.3155
     15 O          -6.8606    3.6043    3.0104 O.3     1  UNL1       -0.4802
     16 O          -5.0065    3.4829    1.6592 O.2     1  UNL1       -0.2504
     17 C          -4.3295   -2.9883    0.0759 C.3     1  UNL1        0.1130
     18 O          -5.3410   -3.6637   -0.6293 O.3     1  UNL1       -0.3864
     19 C          -2.9611   -3.4194   -0.4789 C.3     1  UNL1        0.1152
     20 O          -2.7161   -4.7655   -0.1611 O.3     1  UNL1       -0.3864
     21 C          -1.8444   -2.5500    0.1164 C.3     1  UNL1        0.1454
     22 O          -0.6366   -2.8630   -0.5289 O.3     1  UNL1       -0.3829
     23 C           1.0000    0.4130    1.1922 C.ar    1  UNL1        0.0268
     24 C           2.3512    0.6453    0.9357 C.ar    1  UNL1        0.1421
     25 O           3.1487    1.0352    1.9242 O.2     1  UNL1       -0.4620
     26 C           4.4446    1.2689    1.7514 C.ar    1  UNL1        0.1038
     27 C           5.0436    1.1104    0.4919 C.ar    1  UNL1        0.0643
     28 C           4.2292    0.7094   -0.5848 C.ar    1  UNL1        0.2003
     29 O           4.7190    0.5895   -1.7422 O.2     1  UNL1       -0.2864
     30 C           2.8612    0.4657   -0.3637 C.ar    1  UNL1        0.0682
     31 C           1.9956    0.0639   -1.3943 C.ar    1  UNL1       -0.0019
     32 C           6.4959    1.3698    0.3246 C.ar    1  UNL1       -0.0110
     33 C           7.0713    2.5424    0.8453 C.ar    1  UNL1       -0.0504
     34 C           8.4401    2.7854    0.6965 C.ar    1  UNL1       -0.0196
     35 C           9.2516    1.8573    0.0311 C.ar    1  UNL1        0.1169
     36 O          10.6166    2.0888   -0.1231 O.3     1  UNL1       -0.5068
     37 C           8.6874    0.6859   -0.4826 C.ar    1  UNL1       -0.0196
     38 C           7.3188    0.4403   -0.3361 C.ar    1  UNL1       -0.0504
     39 H           0.5597    0.1884   -3.9656 H       1  UNL1        0.0660
     40 H           0.8844   -1.5666   -3.5942 H       1  UNL1        0.0660
     41 H          -0.7553   -1.0347   -4.1208 H       1  UNL1        0.0660
     42 H          -2.2759   -0.7877   -1.1415 H       1  UNL1        0.1084
     43 H          -4.5224   -1.1997   -1.1721 H       1  UNL1        0.0658
     44 H          -6.6727   -1.4627    0.0038 H       1  UNL1        0.0724
     45 H          -5.8499   -1.2503    1.6033 H       1  UNL1        0.0724
     46 H          -6.5999    2.9171   -0.2745 H       1  UNL1        0.0493
     47 H          -8.0787    3.0164    0.7429 H       1  UNL1        0.0493
     48 H          -6.3346    4.0208    3.7694 H       1  UNL1        0.2951
     49 H          -4.3637   -3.2482    1.1623 H       1  UNL1        0.0647
     50 H          -6.0713   -3.8538    0.0158 H       1  UNL1        0.2100
     51 H          -2.9562   -3.2847   -1.5879 H       1  UNL1        0.0648
     52 H          -3.2313   -5.3133   -0.8092 H       1  UNL1        0.2100
     53 H          -1.7745   -2.7663    1.2108 H       1  UNL1        0.0683
     54 H           0.0768   -2.8572    0.1614 H       1  UNL1        0.2102
     55 H           0.6198    0.5485    2.1976 H       1  UNL1        0.0692
     56 H           5.0367    1.5767    2.6037 H       1  UNL1        0.1037
     57 H           2.3889   -0.0605   -2.3939 H       1  UNL1        0.0663
     58 H           6.4587    3.2756    1.3554 H       1  UNL1        0.0625
     59 H           8.8684    3.6951    1.0976 H       1  UNL1        0.0654
     60 H          11.0554    2.9277    0.2383 H       1  UNL1        0.2921
     61 H           9.3112   -0.0376   -0.9921 H       1  UNL1        0.0654
     62 H           6.9061   -0.4827   -0.7239 H       1  UNL1        0.0625
@<TRIPOS>BOND
     1     1     2    1
     2     2     3    1
     3     3     4   ar
     4     4     5    1
     5     5     6    1
     6     6     7    1
     7     7     8    1
     8     8     9    1
     9     9    10    1
    10    10    11    1
    11    11    12    2
    12    11    13    1
    13    13    14    1
    14    14    15    1
    15    14    16    2
    16     8    17    1
    17    17    18    1
    18    17    19    1
    19    19    20    1
    20    19    21    1
    21    21    22    1
    22     4    23   ar
    23    23    24   ar
    24    24    25   ar
    25    25    26   ar
    26    26    27   ar
    27    27    28   ar
    28    28    29    2
    29    28    30   ar
    30    30    31   ar
    31    27    32    1
    32    32    33   ar
    33    33    34   ar
    34    34    35   ar
    35    35    36    1
    36    35    37   ar
    37    37    38   ar
    38    31     3   ar
    39    38    32   ar
    40    21     6    1
    41    30    24   ar
    42     1    39    1
    43     1    40    1
    44     1    41    1
    45     6    42    1
    46     8    43    1
    47     9    44    1
    48     9    45    1
    49    13    46    1
    50    13    47    1
    51    15    48    1
    52    17    49    1
    53    18    50    1
    54    19    51    1
    55    20    52    1
    56    21    53    1
    57    22    54    1
    58    23    55    1
    59    26    56    1
    60    31    57    1
    61    33    58    1
    62    34    59    1
    63    36    60    1
    64    37    61    1
    65    38    62    1
