@<TRIPOS>MOLECULE
Indinavir
 92 96 0 0 0
SMALL
GASTEIGER

@<TRIPOS>ATOM
      1 C          -4.4117   -4.4435   -0.5398 C.3     1  UNL1       -0.0442
      2 C          -3.2199   -3.7076   -1.1818 C.3     1  UNL1        0.0262
      3 C          -1.9074   -4.0849   -0.4641 C.3     1  UNL1       -0.0442
      4 C          -3.1121   -4.1434   -2.6573 C.3     1  UNL1       -0.0442
      5 N          -3.4328   -2.2479   -1.1267 N.am    1  UNL1       -0.3092
      6 C          -3.4781   -1.4703    0.0843 C.2     1  UNL1        0.2319
      7 O          -3.5877   -2.0335    1.2062 O.2     1  UNL1       -0.2740
      8 C          -3.4257    0.0368    0.0289 C.3     1  UNL1        0.1002
      9 C          -4.8193    0.5896   -0.3237 C.3     1  UNL1        0.0234
     10 N          -4.8584    2.0765   -0.3723 N.3     1  UNL1       -0.2950
     11 C          -3.5171    2.7069   -0.4206 C.3     1  UNL1        0.0121
     12 C          -2.5656    1.9347   -1.3451 C.3     1  UNL1        0.0125
     13 N          -2.4365    0.5047   -0.9715 N.3     1  UNL1       -0.2868
     14 C          -1.0369    0.0783   -0.7321 C.3     1  UNL1        0.0258
     15 C          -0.4358    0.5815    0.6135 C.3     1  UNL1        0.0686
     16 C           1.1107    0.6414    0.5803 C.3     1  UNL1       -0.0142
     17 C           1.8131   -0.7383    0.4452 C.3     1  UNL1        0.0419
     18 C           2.1629   -1.3455    1.8239 C.3     1  UNL1       -0.0165
     19 C           2.5925   -2.7845    1.6939 C.ar    1  UNL1       -0.0466
     20 C           3.9558   -3.1184    1.6292 C.ar    1  UNL1       -0.0586
     21 C           4.3463   -4.4508    1.4638 C.ar    1  UNL1       -0.0615
     22 C           3.3809   -5.4557    1.3539 C.ar    1  UNL1       -0.0617
     23 C           2.0227   -5.1297    1.4066 C.ar    1  UNL1       -0.0615
     24 C           1.6278   -3.7990    1.5729 C.ar    1  UNL1       -0.0586
     25 C           3.0596   -0.6108   -0.3980 C.2     1  UNL1        0.2170
     26 O           3.1612   -1.2878   -1.4574 O.2     1  UNL1       -0.2755
     27 N           4.1255    0.2627    0.0021 N.am    1  UNL1       -0.3057
     28 C           5.3643    0.3739   -0.7736 C.3     1  UNL1        0.0748
     29 C           5.2129    1.3029   -2.0132 C.3     1  UNL1        0.0816
     30 C           6.4069    2.2882   -1.9870 C.3     1  UNL1        0.0008
     31 C           7.0171    2.0717   -0.6537 C.ar    1  UNL1       -0.0398
     32 C           8.0797    2.7890   -0.0980 C.ar    1  UNL1       -0.0582
     33 C           8.5553    2.4189    1.1693 C.ar    1  UNL1       -0.0615
     34 C           7.9736    1.3372    1.8542 C.ar    1  UNL1       -0.0614
     35 C           6.9132    0.6243    1.2749 C.ar    1  UNL1       -0.0565
     36 C           6.4428    1.0199    0.0186 C.ar    1  UNL1       -0.0215
     37 O           3.9884    1.9987   -2.0162 O.3     1  UNL1       -0.3893
     38 O          -0.8798   -0.1766    1.7120 O.3     1  UNL1       -0.3905
     39 C          -5.6698    2.6326    0.7319 C.3     1  UNL1        0.0256
     40 C          -5.9745    4.0906    0.5011 C.ar    1  UNL1       -0.0153
     41 C          -5.3701    5.0860    1.2844 C.ar    1  UNL1        0.0320
     42 N          -5.6380    6.3983    1.0480 N.ar    1  UNL1       -0.2629
     43 C          -6.4848    6.7879    0.0583 C.ar    1  UNL1        0.0276
     44 C          -7.1033    5.8320   -0.7498 C.ar    1  UNL1       -0.0433
     45 C          -6.8442    4.4783   -0.5279 C.ar    1  UNL1       -0.0545
     46 H          -4.4690   -4.2541    0.5511 H       1  UNL1        0.0250
     47 H          -4.3159   -5.5417   -0.6824 H       1  UNL1        0.0250
     48 H          -5.3646   -4.1097   -1.0039 H       1  UNL1        0.0250
     49 H          -1.9562   -3.8564    0.6201 H       1  UNL1        0.0250
     50 H          -1.7028   -5.1723   -0.5691 H       1  UNL1        0.0250
     51 H          -1.0528   -3.5244   -0.8998 H       1  UNL1        0.0250
     52 H          -4.0445   -3.8889   -3.2064 H       1  UNL1        0.0250
     53 H          -2.2637   -3.6244   -3.1537 H       1  UNL1        0.0250
     54 H          -2.9466   -5.2398   -2.7377 H       1  UNL1        0.0250
     55 H          -3.4959   -1.7190   -2.0268 H       1  UNL1        0.1492
     56 H          -3.1661    0.4222    1.0384 H       1  UNL1        0.0571
     57 H          -5.1114    0.2103   -1.3269 H       1  UNL1        0.0447
     58 H          -5.5631    0.1727    0.3937 H       1  UNL1        0.0447
     59 H          -3.0654    2.7689    0.5952 H       1  UNL1        0.0439
     60 H          -3.6103    3.7427   -0.8126 H       1  UNL1        0.0439
     61 H          -2.9629    1.9868   -2.3812 H       1  UNL1        0.0439
     62 H          -1.5823    2.4562   -1.3536 H       1  UNL1        0.0439
     63 H          -0.4088    0.4371   -1.5775 H       1  UNL1        0.0452
     64 H          -0.9787   -1.0268   -0.7937 H       1  UNL1        0.0452
     65 H          -0.7802    1.6246    0.7751 H       1  UNL1        0.0606
     66 H           1.3983    1.3017   -0.2689 H       1  UNL1        0.0298
     67 H           1.4697    1.1589    1.4973 H       1  UNL1        0.0298
     68 H           1.1318   -1.4434   -0.0763 H       1  UNL1        0.0398
     69 H           2.9600   -0.7503    2.3206 H       1  UNL1        0.0320
     70 H           1.2872   -1.3006    2.5030 H       1  UNL1        0.0320
     71 H           4.7138   -2.3481    1.7004 H       1  UNL1        0.0620
     72 H           5.3976   -4.7038    1.4160 H       1  UNL1        0.0618
     73 H           3.6851   -6.4862    1.2236 H       1  UNL1        0.0618
     74 H           1.2756   -5.9075    1.3143 H       1  UNL1        0.0618
     75 H           0.5725   -3.5573    1.6016 H       1  UNL1        0.0620
     76 H           3.9983    0.8560    0.8537 H       1  UNL1        0.1494
     77 H           5.7159   -0.6359   -1.0812 H       1  UNL1        0.0574
     78 H           5.2614    0.6886   -2.9387 H       1  UNL1        0.0618
     79 H           7.1435    2.0306   -2.7784 H       1  UNL1        0.0339
     80 H           6.0840    3.3455   -2.1038 H       1  UNL1        0.0339
     81 H           8.5315    3.6127   -0.6355 H       1  UNL1        0.0620
     82 H           9.3763    2.9631    1.6175 H       1  UNL1        0.0618
     83 H           8.3482    1.0503    2.8281 H       1  UNL1        0.0618
     84 H           6.4684   -0.2161    1.7924 H       1  UNL1        0.0621
     85 H           3.9723    2.5856   -1.2147 H       1  UNL1        0.2099
     86 H          -0.7959   -1.1374    1.4800 H       1  UNL1        0.2098
     87 H          -6.6476    2.1044    0.7913 H       1  UNL1        0.0476
     88 H          -5.1580    2.4778    1.7089 H       1  UNL1        0.0476
     89 H          -4.6841    4.8204    2.0783 H       1  UNL1        0.0833
     90 H          -6.6760    7.8404   -0.1029 H       1  UNL1        0.0829
     91 H          -7.7750    6.1375   -1.5415 H       1  UNL1        0.0633
     92 H          -7.3170    3.7335   -1.1562 H       1  UNL1        0.0622
@<TRIPOS>BOND
     1     1     2    1
     2     2     3    1
     3     2     4    1
     4     2     5    1
     5     5     6   am
     6     6     7    2
     7     6     8    1
     8     8     9    1
     9     9    10    1
    10    10    11    1
    11    11    12    1
    12    12    13    1
    13    13    14    1
    14    14    15    1
    15    15    16    1
    16    16    17    1
    17    17    18    1
    18    18    19    1
    19    19    20   ar
    20    20    21   ar
    21    21    22   ar
    22    22    23   ar
    23    23    24   ar
    24    17    25    1
    25    25    26    2
    26    25    27   am
    27    27    28    1
    28    28    29    1
    29    29    30    1
    30    30    31    1
    31    31    32   ar
    32    32    33   ar
    33    33    34   ar
    34    34    35   ar
    35    35    36   ar
    36    29    37    1
    37    15    38    1
    38    10    39    1
    39    39    40    1
    40    40    41   ar
    41    41    42   ar
    42    42    43   ar
    43    43    44   ar
    44    44    45   ar
    45    13     8    1
    46    24    19   ar
    47    36    28    1
    48    36    31   ar
    49    45    40   ar
    50     1    46    1
    51     1    47    1
    52     1    48    1
    53     3    49    1
    54     3    50    1
    55     3    51    1
    56     4    52    1
    57     4    53    1
    58     4    54    1
    59     5    55    1
    60     8    56    1
    61     9    57    1
    62     9    58    1
    63    11    59    1
    64    11    60    1
    65    12    61    1
    66    12    62    1
    67    14    63    1
    68    14    64    1
    69    15    65    1
    70    16    66    1
    71    16    67    1
    72    17    68    1
    73    18    69    1
    74    18    70    1
    75    20    71    1
    76    21    72    1
    77    22    73    1
    78    23    74    1
    79    24    75    1
    80    27    76    1
    81    28    77    1
    82    29    78    1
    83    30    79    1
    84    30    80    1
    85    32    81    1
    86    33    82    1
    87    34    83    1
    88    35    84    1
    89    37    85    1
    90    38    86    1
    91    39    87    1
    92    39    88    1
    93    41    89    1
    94    43    90    1
    95    44    91    1
    96    45    92    1
