@<TRIPOS>MOLECULE
Lopinavir
 94 97 0 0 0
SMALL
GASTEIGER

@<TRIPOS>ATOM
      1 C           4.9921    0.2093    1.0407 C.3     1  UNL1       -0.0362
      2 C           4.3193    1.4998    1.4169 C.ar    1  UNL1       -0.0085
      3 C           4.6353    2.7084    0.7588 C.ar    1  UNL1        0.1270
      4 C           3.9758    3.9025    1.1332 C.ar    1  UNL1       -0.0085
      5 C           2.9600    3.8562    2.1011 C.ar    1  UNL1       -0.0554
      6 C           2.6255    2.6516    2.7193 C.ar    1  UNL1       -0.0610
      7 C           3.3014    1.4810    2.3803 C.ar    1  UNL1       -0.0554
      8 C           4.3169    5.2227    0.5010 C.3     1  UNL1       -0.0362
      9 O           5.6182    2.7095   -0.2418 O.3     1  UNL1       -0.4822
     10 C           5.3147    2.8584   -1.6289 C.3     1  UNL1        0.1652
     11 C           4.4804    1.7089   -2.1000 C.2     1  UNL1        0.2510
     12 O           5.0381    0.6161   -2.3901 O.2     1  UNL1       -0.2721
     13 N           3.0528    1.8318   -2.1473 N.am    1  UNL1       -0.3069
     14 C           2.1582    0.6709   -2.0761 C.3     1  UNL1        0.0531
     15 C           1.5766    0.4149   -3.4820 C.3     1  UNL1       -0.0068
     16 C           0.7301   -0.8315   -3.5390 C.ar    1  UNL1       -0.0455
     17 C           1.3326   -2.1000   -3.4858 C.ar    1  UNL1       -0.0585
     18 C           0.5441   -3.2550   -3.4921 C.ar    1  UNL1       -0.0615
     19 C          -0.8479   -3.1525   -3.5607 C.ar    1  UNL1       -0.0617
     20 C          -1.4529   -1.8951   -3.6257 C.ar    1  UNL1       -0.0615
     21 C          -0.6702   -0.7379   -3.6092 C.ar    1  UNL1       -0.0585
     22 C           1.0453    0.8907   -0.9975 C.3     1  UNL1        0.0755
     23 C           0.8341   -0.3886   -0.1597 C.3     1  UNL1       -0.0063
     24 C          -0.3397   -0.2647    0.8368 C.3     1  UNL1        0.0295
     25 C          -0.4543   -1.5217    1.7233 C.3     1  UNL1       -0.0091
     26 C           0.6670   -1.6186    2.7263 C.ar    1  UNL1       -0.0456
     27 C           0.6105   -0.8798    3.9202 C.ar    1  UNL1       -0.0585
     28 C           1.6481   -0.9684    4.8535 C.ar    1  UNL1       -0.0615
     29 C           2.7539   -1.7838    4.5961 C.ar    1  UNL1       -0.0617
     30 C           2.8235   -2.5119    3.4051 C.ar    1  UNL1       -0.0615
     31 C           1.7841   -2.4328    2.4732 C.ar    1  UNL1       -0.0585
     32 N          -1.6003   -0.0784    0.1107 N.am    1  UNL1       -0.3105
     33 C          -2.7466    0.5403    0.7121 C.2     1  UNL1        0.2341
     34 O          -2.6196    1.1762    1.7945 O.2     1  UNL1       -0.2738
     35 C          -4.0882    0.4701    0.0098 C.3     1  UNL1        0.1059
     36 C          -5.2578    1.1210    0.8121 C.3     1  UNL1       -0.0195
     37 C          -6.4998    1.3119   -0.0696 C.3     1  UNL1       -0.0605
     38 C          -5.6411    0.3623    2.0940 C.3     1  UNL1       -0.0605
     39 N          -4.3993   -0.9153   -0.4149 N.am    1  UNL1       -0.2738
     40 C          -4.2565   -2.0630    0.4950 C.3     1  UNL1        0.0183
     41 C          -3.5197   -3.2019   -0.2103 C.3     1  UNL1       -0.0214
     42 C          -4.3244   -3.6675   -1.4288 C.3     1  UNL1        0.0145
     43 N          -4.7213   -2.5403   -2.2729 N.am    1  UNL1       -0.2992
     44 C          -4.7890   -1.1979   -1.7742 C.2     1  UNL1        0.3028
     45 O          -5.1630   -0.2713   -2.5426 O.2     1  UNL1       -0.2526
     46 O           1.3953    1.9346   -0.1220 O.3     1  UNL1       -0.3899
     47 H           5.0281   -0.4815    1.9101 H       1  UNL1        0.0279
     48 H           4.4235   -0.2791    0.2229 H       1  UNL1        0.0279
     49 H           6.0362    0.3853    0.7074 H       1  UNL1        0.0279
     50 H           2.4269    4.7568    2.3805 H       1  UNL1        0.0621
     51 H           1.8378    2.6240    3.4612 H       1  UNL1        0.0618
     52 H           3.0250    0.5546    2.8620 H       1  UNL1        0.0621
     53 H           4.1651    6.0524    1.2241 H       1  UNL1        0.0279
     54 H           3.6609    5.3940   -0.3777 H       1  UNL1        0.0279
     55 H           5.3803    5.2506    0.1835 H       1  UNL1        0.0279
     56 H           6.2656    2.8794   -2.2014 H       1  UNL1        0.0795
     57 H           4.7906    3.8168   -1.8168 H       1  UNL1        0.0795
     58 H           2.6378    2.7853   -2.2532 H       1  UNL1        0.1492
     59 H           2.7617   -0.2212   -1.7941 H       1  UNL1        0.0527
     60 H           0.9887    1.3014   -3.8082 H       1  UNL1        0.0332
     61 H           2.4139    0.3052   -4.2057 H       1  UNL1        0.0332
     62 H           2.4100   -2.1923   -3.4269 H       1  UNL1        0.0620
     63 H           1.0124   -4.2294   -3.4430 H       1  UNL1        0.0618
     64 H          -1.4574   -4.0468   -3.5671 H       1  UNL1        0.0618
     65 H          -2.5285   -1.8152   -3.6905 H       1  UNL1        0.0618
     66 H          -1.1565    0.2290   -3.6453 H       1  UNL1        0.0620
     67 H           0.0833    1.1408   -1.5044 H       1  UNL1        0.0612
     68 H           1.7728   -0.5900    0.3994 H       1  UNL1        0.0309
     69 H           0.6498   -1.2575   -0.8257 H       1  UNL1        0.0309
     70 H          -0.1557    0.6193    1.4877 H       1  UNL1        0.0502
     71 H          -0.4878   -2.4332    1.0864 H       1  UNL1        0.0331
     72 H          -1.4158   -1.4934    2.2802 H       1  UNL1        0.0331
     73 H          -0.2372   -0.2382    4.1273 H       1  UNL1        0.0620
     74 H           1.5986   -0.3991    5.7725 H       1  UNL1        0.0618
     75 H           3.5592   -1.8464    5.3163 H       1  UNL1        0.0618
     76 H           3.6833   -3.1375    3.2037 H       1  UNL1        0.0618
     77 H           1.8514   -3.0015    1.5540 H       1  UNL1        0.0620
     78 H          -1.7126   -0.5196   -0.8301 H       1  UNL1        0.1490
     79 H          -3.9416    1.1006   -0.8949 H       1  UNL1        0.0600
     80 H          -4.9295    2.1401    1.1167 H       1  UNL1        0.0318
     81 H          -6.2449    1.9057   -0.9730 H       1  UNL1        0.0233
     82 H          -7.2852    1.8625    0.4911 H       1  UNL1        0.0233
     83 H          -6.9143    0.3312   -0.3860 H       1  UNL1        0.0233
     84 H          -4.7480    0.1141    2.7022 H       1  UNL1        0.0233
     85 H          -6.1903   -0.5714    1.8579 H       1  UNL1        0.0233
     86 H          -6.3076    0.9966    2.7165 H       1  UNL1        0.0233
     87 H          -3.7096   -1.7865    1.4192 H       1  UNL1        0.0466
     88 H          -5.2647   -2.4216    0.7942 H       1  UNL1        0.0466
     89 H          -3.3843   -4.0521    0.4922 H       1  UNL1        0.0295
     90 H          -2.5153   -2.8553   -0.5362 H       1  UNL1        0.0295
     91 H          -3.7082   -4.3740   -2.0248 H       1  UNL1        0.0463
     92 H          -5.2371   -4.2037   -1.0904 H       1  UNL1        0.0463
     93 H          -5.0630   -2.7389   -3.2401 H       1  UNL1        0.1502
     94 H           0.9900    2.7688   -0.4763 H       1  UNL1        0.2099
@<TRIPOS>BOND
     1     1     2    1
     2     2     3   ar
     3     3     4   ar
     4     4     5   ar
     5     5     6   ar
     6     6     7   ar
     7     4     8    1
     8     3     9    1
     9     9    10    1
    10    10    11    1
    11    11    12    2
    12    11    13   am
    13    13    14    1
    14    14    15    1
    15    15    16    1
    16    16    17   ar
    17    17    18   ar
    18    18    19   ar
    19    19    20   ar
    20    20    21   ar
    21    14    22    1
    22    22    23    1
    23    23    24    1
    24    24    25    1
    25    25    26    1
    26    26    27   ar
    27    27    28   ar
    28    28    29   ar
    29    29    30   ar
    30    30    31   ar
    31    24    32    1
    32    32    33   am
    33    33    34    2
    34    33    35    1
    35    35    36    1
    36    36    37    1
    37    36    38    1
    38    35    39    1
    39    39    40    1
    40    40    41    1
    41    41    42    1
    42    42    43    1
    43    43    44   am
    44    44    45    2
    45    22    46    1
    46     7     2   ar
    47    21    16   ar
    48    31    26   ar
    49    44    39   am
    50     1    47    1
    51     1    48    1
    52     1    49    1
    53     5    50    1
    54     6    51    1
    55     7    52    1
    56     8    53    1
    57     8    54    1
    58     8    55    1
    59    10    56    1
    60    10    57    1
    61    13    58    1
    62    14    59    1
    63    15    60    1
    64    15    61    1
    65    17    62    1
    66    18    63    1
    67    19    64    1
    68    20    65    1
    69    21    66    1
    70    22    67    1
    71    23    68    1
    72    23    69    1
    73    24    70    1
    74    25    71    1
    75    25    72    1
    76    27    73    1
    77    28    74    1
    78    29    75    1
    79    30    76    1
    80    31    77    1
    81    32    78    1
    82    35    79    1
    83    36    80    1
    84    37    81    1
    85    37    82    1
    86    37    83    1
    87    38    84    1
    88    38    85    1
    89    38    86    1
    90    40    87    1
    91    40    88    1
    92    41    89    1
    93    41    90    1
    94    42    91    1
    95    42    92    1
    96    43    93    1
    97    46    94    1
