@<TRIPOS>MOLECULE
Peonidin 3-O-galactoside
 56 59 0 0 0
SMALL
GASTEIGER

@<TRIPOS>ATOM
      1 C           2.3987   -1.6933   -2.5454 C.3     1  UNL1        0.1140
      2 C           2.3889   -3.1177   -3.1209 C.3     1  UNL1        0.0731
      3 O           1.2324   -3.3104   -3.8883 O.3     1  UNL1       -0.3924
      4 O           1.1766   -1.4999   -1.8425 O.3     1  UNL1       -0.3313
      5 C           1.1744   -0.2692   -1.1443 C.3     1  UNL1        0.2312
      6 O          -0.1595   -0.0305   -0.6912 O.3     1  UNL1       -0.4515
      7 C          -0.6393    1.1463   -0.0892 C.ar    1  UNL1        0.2288
      8 C           0.0091    2.3831   -0.2356 C.ar    1  UNL1        0.0093
      9 C          -0.5358    3.5404    0.3444 C.ar    1  UNL1        0.1241
     10 C          -1.7550    3.4054    1.0491 C.ar    1  UNL1        0.3708
     11 C          -2.3611    4.5225    1.6297 C.ar    1  UNL1        0.0847
     12 C          -1.7706    5.7816    1.5210 C.ar    1  UNL1        0.1293
     13 O          -2.3914    6.8838    2.1047 O.3     1  UNL1       -0.5063
     14 C          -0.5626    5.9267    0.8301 C.ar    1  UNL1        0.0225
     15 C           0.0668    4.8221    0.2428 C.ar    1  UNL1        0.1366
     16 O           1.2781    5.0492   -0.4174 O.3     1  UNL1       -0.5057
     17 O          -2.3392    2.2191    1.1688 O.2     1  UNL1       -0.1997
     18 C          -1.8362    1.1017    0.6527 C.ar    1  UNL1        0.4046
     19 C          -2.5721   -0.1647    0.8752 C.ar    1  UNL1        0.0865
     20 C          -1.8968   -1.3527    1.2086 C.ar    1  UNL1       -0.0001
     21 C          -2.6076   -2.5509    1.4127 C.ar    1  UNL1        0.1621
     22 O          -1.9609   -3.7599    1.7145 O.3     1  UNL1       -0.4914
     23 C          -0.5476   -3.9184    1.7972 C.3     1  UNL1        0.0790
     24 C          -4.0058   -2.5449    1.3135 C.ar    1  UNL1        0.1585
     25 O          -4.7162   -3.7267    1.5172 O.3     1  UNL1       -0.5033
     26 C          -4.6838   -1.3562    1.0135 C.ar    1  UNL1       -0.0157
     27 C          -3.9726   -0.1737    0.8000 C.ar    1  UNL1       -0.0418
     28 C           2.1406   -0.3457    0.0703 C.3     1  UNL1        0.1454
     29 O           2.7175    0.9177    0.2816 O.3     1  UNL1       -0.3829
     30 C           3.2528   -1.3949   -0.1591 C.3     1  UNL1        0.1152
     31 O           2.7849   -2.6614    0.2352 O.3     1  UNL1       -0.3864
     32 C           3.6504   -1.4118   -1.6448 C.3     1  UNL1        0.1120
     33 O           4.6870   -2.3394   -1.8495 O.3     1  UNL1       -0.3865
     34 H           2.4287   -0.9977   -3.4156 H       1  UNL1        0.0647
     35 H           3.2810   -3.2707   -3.7683 H       1  UNL1        0.0584
     36 H           2.4114   -3.8567   -2.2885 H       1  UNL1        0.0584
     37 H           1.2718   -4.2463   -4.2162 H       1  UNL1        0.2095
     38 H           1.4711    0.5471   -1.8427 H       1  UNL1        0.1084
     39 H           0.9053    2.4348   -0.8253 H       1  UNL1        0.0667
     40 H          -3.2953    4.4117    2.1667 H       1  UNL1        0.0749
     41 H          -1.9891    7.8119    2.0448 H       1  UNL1        0.2921
     42 H          -0.1047    6.9050    0.7509 H       1  UNL1        0.0691
     43 H           1.8413    4.3283   -0.8442 H       1  UNL1        0.2922
     44 H          -0.8236   -1.3370    1.3296 H       1  UNL1        0.0664
     45 H          -0.3141   -4.9792    2.0215 H       1  UNL1        0.0660
     46 H          -0.1388   -3.2849    2.6125 H       1  UNL1        0.0660
     47 H          -0.0750   -3.6469    0.8291 H       1  UNL1        0.0660
     48 H          -5.7272   -3.7557    1.4533 H       1  UNL1        0.2923
     49 H          -5.7640   -1.3489    0.9417 H       1  UNL1        0.0655
     50 H          -4.5155    0.7330    0.5619 H       1  UNL1        0.0628
     51 H           1.5596   -0.6419    0.9762 H       1  UNL1        0.0683
     52 H           3.0344    0.9380    1.2224 H       1  UNL1        0.2102
     53 H           4.1420   -1.1217    0.4574 H       1  UNL1        0.0648
     54 H           3.5832   -3.2319    0.3861 H       1  UNL1        0.2100
     55 H           4.0305   -0.3900   -1.8876 H       1  UNL1        0.0647
     56 H           5.1428   -2.0775   -2.6919 H       1  UNL1        0.2100
@<TRIPOS>UNITY_ATOM_ATTR
17 1
charge 1
@<TRIPOS>BOND
     1     1     2    1
     2     2     3    1
     3     1     4    1
     4     4     5    1
     5     5     6    1
     6     6     7    1
     7     7     8   ar
     8     8     9   ar
     9     9    10   ar
    10    10    11   ar
    11    11    12   ar
    12    12    13    1
    13    12    14   ar
    14    14    15   ar
    15    15    16    1
    16    10    17   ar
    17    17    18   ar
    18    18    19    1
    19    19    20   ar
    20    20    21   ar
    21    21    22    1
    22    22    23    1
    23    21    24   ar
    24    24    25    1
    25    24    26   ar
    26    26    27   ar
    27     5    28    1
    28    28    29    1
    29    28    30    1
    30    30    31    1
    31    30    32    1
    32    32    33    1
    33    32     1    1
    34    18     7   ar
    35    27    19   ar
    36    15     9   ar
    37     1    34    1
    38     2    35    1
    39     2    36    1
    40     3    37    1
    41     5    38    1
    42     8    39    1
    43    11    40    1
    44    13    41    1
    45    14    42    1
    46    16    43    1
    47    20    44    1
    48    23    45    1
    49    23    46    1
    50    23    47    1
    51    25    48    1
    52    26    49    1
    53    27    50    1
    54    28    51    1
    55    29    52    1
    56    30    53    1
    57    31    54    1
    58    32    55    1
    59    33    56    1
