@<TRIPOS>MOLECULE
Atazanavir
 103 105 0 0 0
SMALL
GASTEIGER

@<TRIPOS>ATOM
      1 C          -5.8656   -0.4392   -0.8339 C.3     1  UNL1       -0.0579
      2 C          -5.2885    0.8871   -0.2855 C.3     1  UNL1       -0.0107
      3 C          -6.1341    1.3268    0.9304 C.3     1  UNL1       -0.0579
      4 C          -5.4250    1.9696   -1.3803 C.3     1  UNL1       -0.0579
      5 C          -3.7861    0.7605    0.1490 C.3     1  UNL1        0.1073
      6 C          -2.8694    0.3343   -0.9730 C.2     1  UNL1        0.2343
      7 O          -2.8314   -0.8781   -1.3105 O.2     1  UNL1       -0.2737
      8 N          -2.0571    1.3126   -1.6478 N.am    1  UNL1       -0.3081
      9 C          -0.7437    1.0728   -2.2756 C.3     1  UNL1        0.0543
     10 C          -0.8441    0.5676   -3.7388 C.3     1  UNL1       -0.0067
     11 C          -1.8051   -0.5706   -3.9708 C.ar    1  UNL1       -0.0455
     12 C          -1.3596   -1.9036   -3.9436 C.ar    1  UNL1       -0.0585
     13 C          -2.2624   -2.9523   -4.1459 C.ar    1  UNL1       -0.0615
     14 C          -3.6108   -2.6794   -4.3906 C.ar    1  UNL1       -0.0617
     15 C          -4.0585   -1.3569   -4.4410 C.ar    1  UNL1       -0.0615
     16 C          -3.1604   -0.3052   -4.2374 C.ar    1  UNL1       -0.0585
     17 C           0.2541    0.2820   -1.3805 C.3     1  UNL1        0.0880
     18 C           0.3626    0.8943    0.0410 C.3     1  UNL1        0.0448
     19 N           1.5082    0.3304    0.7854 N.3     1  UNL1       -0.2202
     20 C           1.8328    1.1492    1.9668 C.3     1  UNL1        0.0418
     21 C           2.6234    2.3642    1.5610 C.ar    1  UNL1       -0.0317
     22 C           3.9162    2.2164    1.0398 C.ar    1  UNL1       -0.0567
     23 C           4.6503    3.3366    0.6403 C.ar    1  UNL1       -0.0523
     24 C           4.1040    4.6292    0.7586 C.ar    1  UNL1        0.0004
     25 C           2.8005    4.7687    1.2689 C.ar    1  UNL1       -0.0523
     26 C           2.0687    3.6475    1.6693 C.ar    1  UNL1       -0.0567
     27 C           4.8624    5.8327    0.3300 C.ar    1  UNL1        0.0710
     28 C           6.2687    5.8765    0.3747 C.ar    1  UNL1       -0.0357
     29 C           6.9350    7.0332   -0.0357 C.ar    1  UNL1       -0.0583
     30 C           6.2061    8.1358   -0.4807 C.ar    1  UNL1       -0.0436
     31 C           4.8130    8.0670   -0.5038 C.ar    1  UNL1        0.0283
     32 N           4.1808    6.9326   -0.1014 N.ar    1  UNL1       -0.2550
     33 N           1.1654   -0.9587    1.2381 N.am    1  UNL1       -0.2463
     34 C           1.9766   -2.0843    0.8920 C.2     1  UNL1        0.2476
     35 O           3.0551   -1.9080    0.2619 O.2     1  UNL1       -0.2724
     36 C           1.5468   -3.4784    1.2822 C.3     1  UNL1        0.1085
     37 C           2.1309   -3.9390    2.6650 C.3     1  UNL1       -0.0107
     38 C           3.6759   -3.8702    2.7071 C.3     1  UNL1       -0.0579
     39 C           1.5727   -3.0409    3.7934 C.3     1  UNL1       -0.0579
     40 C           1.6898   -5.3917    2.9522 C.3     1  UNL1       -0.0579
     41 N           1.8843   -4.4124    0.1982 N.am    1  UNL1       -0.2693
     42 C           1.0237   -4.6295   -0.9272 C.2     1  UNL1        0.4006
     43 O          -0.1312   -4.1216   -0.9573 O.2     1  UNL1       -0.2265
     44 O           1.4798   -5.4094   -1.9934 O.3     1  UNL1       -0.4537
     45 C           0.7096   -5.6250   -3.1696 C.3     1  UNL1        0.0833
     46 O          -0.0349   -1.0943   -1.3667 O.3     1  UNL1       -0.3886
     47 N          -3.6165   -0.1629    1.2809 N.am    1  UNL1       -0.2693
     48 C          -2.7817    0.1328    2.4084 C.2     1  UNL1        0.4006
     49 O          -2.3556    1.3051    2.6004 O.2     1  UNL1       -0.2265
     50 O          -2.4424   -0.8940    3.2937 O.3     1  UNL1       -0.4537
     51 C          -1.5940   -0.6879    4.4170 C.3     1  UNL1        0.0833
     52 H          -5.8139   -1.2501   -0.0794 H       1  UNL1        0.0236
     53 H          -5.3294   -0.7651   -1.7485 H       1  UNL1        0.0236
     54 H          -6.9348   -0.3100   -1.1088 H       1  UNL1        0.0236
     55 H          -7.1942    1.4883    0.6373 H       1  UNL1        0.0236
     56 H          -5.7441    2.2762    1.3568 H       1  UNL1        0.0236
     57 H          -6.1169    0.5530    1.7274 H       1  UNL1        0.0236
     58 H          -6.4915    2.1218   -1.6543 H       1  UNL1        0.0236
     59 H          -4.8789    1.6749   -2.3012 H       1  UNL1        0.0236
     60 H          -5.0169    2.9411   -1.0270 H       1  UNL1        0.0236
     61 H          -3.4622    1.7753    0.4702 H       1  UNL1        0.0601
     62 H          -2.3328    2.3138   -1.5286 H       1  UNL1        0.1491
     63 H          -0.2686    2.0760   -2.3811 H       1  UNL1        0.0527
     64 H          -1.1559    1.4210   -4.3814 H       1  UNL1        0.0332
     65 H           0.1681    0.2813   -4.1000 H       1  UNL1        0.0332
     66 H          -0.3162   -2.1311   -3.7663 H       1  UNL1        0.0620
     67 H          -1.9171   -3.9773   -4.1150 H       1  UNL1        0.0618
     68 H          -4.3079   -3.4926   -4.5455 H       1  UNL1        0.0618
     69 H          -5.1026   -1.1463   -4.6331 H       1  UNL1        0.0618
     70 H          -3.5221    0.7147   -4.2734 H       1  UNL1        0.0620
     71 H           1.2580    0.3909   -1.8477 H       1  UNL1        0.0625
     72 H          -0.5837    0.7489    0.6046 H       1  UNL1        0.0469
     73 H           0.4984    1.9915   -0.0796 H       1  UNL1        0.0469
     74 H           0.9084    1.4311    2.5222 H       1  UNL1        0.0492
     75 H           2.4625    0.5625    2.6737 H       1  UNL1        0.0492
     76 H           4.3518    1.2302    0.9339 H       1  UNL1        0.0621
     77 H           5.6331    3.1827    0.2155 H       1  UNL1        0.0624
     78 H           2.3490    5.7480    1.3687 H       1  UNL1        0.0624
     79 H           1.0670    3.7813    2.0586 H       1  UNL1        0.0621
     80 H           6.8489    5.0414    0.7436 H       1  UNL1        0.0639
     81 H           8.0160    7.0766   -0.0023 H       1  UNL1        0.0619
     82 H           6.7151    9.0364   -0.7989 H       1  UNL1        0.0633
     83 H           4.2329    8.9155   -0.8410 H       1  UNL1        0.0830
     84 H           0.3188   -1.0994    1.8371 H       1  UNL1        0.1693
     85 H           0.4388   -3.4659    1.3904 H       1  UNL1        0.0601
     86 H           4.0355   -2.8318    2.5493 H       1  UNL1        0.0236
     87 H           4.0504   -4.2046    3.6989 H       1  UNL1        0.0236
     88 H           4.1373   -4.5256    1.9413 H       1  UNL1        0.0236
     89 H           0.4615   -3.0460    3.7870 H       1  UNL1        0.0236
     90 H           1.9130   -3.3998    4.7889 H       1  UNL1        0.0236
     91 H           1.9206   -1.9925    3.6793 H       1  UNL1        0.0236
     92 H           0.5823   -5.4787    2.9153 H       1  UNL1        0.0236
     93 H           2.0301   -5.7164    3.9594 H       1  UNL1        0.0236
     94 H           2.1208   -6.0952    2.2084 H       1  UNL1        0.0236
     95 H           2.8529   -4.7944    0.1293 H       1  UNL1        0.1528
     96 H          -0.2589   -6.1028   -2.9102 H       1  UNL1        0.0661
     97 H           1.2693   -6.2947   -3.8542 H       1  UNL1        0.0661
     98 H           0.5268   -4.6583   -3.6839 H       1  UNL1        0.0661
     99 H          -0.5970   -1.2993   -0.5782 H       1  UNL1        0.2099
    100 H          -3.9484   -1.1482    1.1864 H       1  UNL1        0.1528
    101 H          -0.5963   -0.3333    4.0816 H       1  UNL1        0.0661
    102 H          -2.0460    0.0596    5.1028 H       1  UNL1        0.0661
    103 H          -1.4702   -1.6464    4.9612 H       1  UNL1        0.0661
@<TRIPOS>BOND
     1     1     2    1
     2     2     3    1
     3     2     4    1
     4     2     5    1
     5     5     6    1
     6     6     7    2
     7     6     8   am
     8     8     9    1
     9     9    10    1
    10    10    11    1
    11    11    12   ar
    12    12    13   ar
    13    13    14   ar
    14    14    15   ar
    15    15    16   ar
    16     9    17    1
    17    17    18    1
    18    18    19    1
    19    19    20    1
    20    20    21    1
    21    21    22   ar
    22    22    23   ar
    23    23    24   ar
    24    24    25   ar
    25    25    26   ar
    26    24    27    1
    27    27    28   ar
    28    28    29   ar
    29    29    30   ar
    30    30    31   ar
    31    31    32   ar
    32    19    33    1
    33    33    34   am
    34    34    35    2
    35    34    36    1
    36    36    37    1
    37    37    38    1
    38    37    39    1
    39    37    40    1
    40    36    41    1
    41    41    42   am
    42    42    43    2
    43    42    44    1
    44    44    45    1
    45    17    46    1
    46     5    47    1
    47    47    48   am
    48    48    49    2
    49    48    50    1
    50    50    51    1
    51    16    11   ar
    52    26    21   ar
    53    32    27   ar
    54     1    52    1
    55     1    53    1
    56     1    54    1
    57     3    55    1
    58     3    56    1
    59     3    57    1
    60     4    58    1
    61     4    59    1
    62     4    60    1
    63     5    61    1
    64     8    62    1
    65     9    63    1
    66    10    64    1
    67    10    65    1
    68    12    66    1
    69    13    67    1
    70    14    68    1
    71    15    69    1
    72    16    70    1
    73    17    71    1
    74    18    72    1
    75    18    73    1
    76    20    74    1
    77    20    75    1
    78    22    76    1
    79    23    77    1
    80    25    78    1
    81    26    79    1
    82    28    80    1
    83    29    81    1
    84    30    82    1
    85    31    83    1
    86    33    84    1
    87    36    85    1
    88    38    86    1
    89    38    87    1
    90    38    88    1
    91    39    89    1
    92    39    90    1
    93    39    91    1
    94    40    92    1
    95    40    93    1
    96    40    94    1
    97    41    95    1
    98    45    96    1
    99    45    97    1
   100    45    98    1
   101    46    99    1
   102    47   100    1
   103    51   101    1
   104    51   102    1
   105    51   103    1
