@<TRIPOS>MOLECULE
Saquinavir
 99 103 0 0 0
SMALL
GASTEIGER

@<TRIPOS>ATOM
      1 C           1.5515    1.5058   -3.9341 C.3     1  UNL1       -0.0442
      2 C           0.6885    1.8144   -2.6936 C.3     1  UNL1        0.0262
      3 C           0.1975    3.2718   -2.7871 C.3     1  UNL1       -0.0442
      4 C           1.5562    1.6257   -1.4372 C.3     1  UNL1       -0.0442
      5 N          -0.4607    0.8878   -2.6666 N.am    1  UNL1       -0.3093
      6 C          -1.5213    0.9118   -1.6939 C.2     1  UNL1        0.2307
      7 O          -1.4187    1.6112   -0.6497 O.2     1  UNL1       -0.2741
      8 C          -2.7532    0.0645   -1.9207 C.3     1  UNL1        0.0876
      9 C          -4.0099    0.6311   -1.2270 C.3     1  UNL1       -0.0257
     10 C          -5.2455   -0.2144   -1.5844 C.3     1  UNL1       -0.0352
     11 C          -6.5027    0.3044   -0.8378 C.3     1  UNL1       -0.0499
     12 C          -7.5718   -0.7818   -0.6053 C.3     1  UNL1       -0.0528
     13 C          -7.5449   -1.8484   -1.7026 C.3     1  UNL1       -0.0527
     14 C          -6.1894   -2.5816   -1.7554 C.3     1  UNL1       -0.0488
     15 C          -4.9940   -1.7102   -1.2878 C.3     1  UNL1       -0.0253
     16 C          -3.6787   -2.1933   -1.9469 C.3     1  UNL1        0.0028
     17 N          -2.5190   -1.3580   -1.5660 N.3     1  UNL1       -0.2887
     18 C          -2.0708   -1.6024   -0.1700 C.3     1  UNL1        0.0274
     19 C          -0.6262   -2.1259   -0.1736 C.3     1  UNL1        0.0865
     20 C          -0.0903   -2.3582    1.2678 C.3     1  UNL1        0.0542
     21 C          -0.5985   -3.6815    1.8875 C.3     1  UNL1       -0.0067
     22 C          -0.2091   -3.7878    3.3405 C.ar    1  UNL1       -0.0455
     23 C           0.9080   -4.5478    3.7278 C.ar    1  UNL1       -0.0585
     24 C           1.2819   -4.6149    5.0736 C.ar    1  UNL1       -0.0615
     25 C           0.5477   -3.9224    6.0403 C.ar    1  UNL1       -0.0617
     26 C          -0.5611   -3.1601    5.6627 C.ar    1  UNL1       -0.0615
     27 C          -0.9382   -3.0899    4.3182 C.ar    1  UNL1       -0.0585
     28 N           1.3782   -2.3307    1.2579 N.am    1  UNL1       -0.3081
     29 C           2.1092   -1.0954    1.2227 C.2     1  UNL1        0.2341
     30 O           1.4849   -0.0016    1.3008 O.2     1  UNL1       -0.2738
     31 C           3.6221   -1.0900    1.1682 C.3     1  UNL1        0.1079
     32 C           4.1929   -1.9827    0.0432 C.3     1  UNL1        0.0506
     33 C           3.7119   -1.6010   -1.3297 C.2     1  UNL1        0.2127
     34 O           2.6115   -2.0433   -1.7536 O.2     1  UNL1       -0.2760
     35 N           4.4890   -0.7346   -2.1569 N.am    1  UNL1       -0.3293
     36 N           4.1215    0.2845    1.0305 N.am    1  UNL1       -0.2983
     37 C           4.3114    1.1487    2.1628 C.2     1  UNL1        0.2630
     38 O           4.4090    0.6545    3.3195 O.2     1  UNL1       -0.2685
     39 C           4.3741    2.6159    1.9815 C.ar    1  UNL1        0.1260
     40 N           4.1709    3.1507    0.7448 N.ar    1  UNL1       -0.2421
     41 C           4.1912    4.4914    0.5211 C.ar    1  UNL1        0.0718
     42 C           3.9731    4.9936   -0.7672 C.ar    1  UNL1       -0.0357
     43 C           3.9890    6.3738   -0.9912 C.ar    1  UNL1       -0.0597
     44 C           4.2242    7.2559    0.0688 C.ar    1  UNL1       -0.0611
     45 C           4.4445    6.7630    1.3593 C.ar    1  UNL1       -0.0526
     46 C           4.4287    5.3797    1.5925 C.ar    1  UNL1        0.0004
     47 C           4.6423    4.8539    2.8719 C.ar    1  UNL1       -0.0504
     48 C           4.6142    3.4717    3.0702 C.ar    1  UNL1       -0.0306
     49 O          -0.5588   -3.3065   -0.9328 O.3     1  UNL1       -0.3887
     50 H           2.4340    2.1801   -3.9841 H       1  UNL1        0.0250
     51 H           1.9134    0.4556   -3.9016 H       1  UNL1        0.0250
     52 H           0.9566    1.6386   -4.8635 H       1  UNL1        0.0250
     53 H          -0.4672    3.3979   -3.6686 H       1  UNL1        0.0250
     54 H          -0.3683    3.5672   -1.8797 H       1  UNL1        0.0250
     55 H           1.0580    3.9682   -2.8898 H       1  UNL1        0.0250
     56 H           1.0366    1.9807   -0.5246 H       1  UNL1        0.0250
     57 H           1.8055    0.5534   -1.3096 H       1  UNL1        0.0250
     58 H           2.5044    2.1968   -1.5239 H       1  UNL1        0.0250
     59 H          -0.5493    0.1816   -3.4334 H       1  UNL1        0.1492
     60 H          -2.9487    0.1166   -3.0163 H       1  UNL1        0.0559
     61 H          -3.8703    0.6502   -0.1249 H       1  UNL1        0.0288
     62 H          -4.1766    1.6775   -1.5661 H       1  UNL1        0.0288
     63 H          -5.4283   -0.1072   -2.6788 H       1  UNL1        0.0304
     64 H          -6.9478    1.1336   -1.4303 H       1  UNL1        0.0268
     65 H          -6.2266    0.7260    0.1538 H       1  UNL1        0.0268
     66 H          -7.3960   -1.2726    0.3775 H       1  UNL1        0.0265
     67 H          -8.5777   -0.3105   -0.5689 H       1  UNL1        0.0265
     68 H          -7.7421   -1.3604   -2.6828 H       1  UNL1        0.0265
     69 H          -8.3584   -2.5848   -1.5258 H       1  UNL1        0.0265
     70 H          -6.0349   -2.9341   -2.7989 H       1  UNL1        0.0268
     71 H          -6.2390   -3.4869   -1.1113 H       1  UNL1        0.0268
     72 H          -4.9025   -1.8283   -0.1851 H       1  UNL1        0.0316
     73 H          -3.4885   -3.2556   -1.6749 H       1  UNL1        0.0430
     74 H          -3.7854   -2.1714   -3.0542 H       1  UNL1        0.0430
     75 H          -2.1158   -0.6794    0.4450 H       1  UNL1        0.0453
     76 H          -2.7178   -2.3436    0.3449 H       1  UNL1        0.0453
     77 H          -0.0055   -1.3414   -0.6649 H       1  UNL1        0.0625
     78 H          -0.4517   -1.5291    1.9176 H       1  UNL1        0.0527
     79 H          -1.7045   -3.7408    1.8174 H       1  UNL1        0.0332
     80 H          -0.1957   -4.5492    1.3202 H       1  UNL1        0.0332
     81 H           1.4896   -5.0861    2.9899 H       1  UNL1        0.0620
     82 H           2.1423   -5.2023    5.3668 H       1  UNL1        0.0618
     83 H           0.8392   -3.9748    7.0813 H       1  UNL1        0.0618
     84 H          -1.1268   -2.6213    6.4117 H       1  UNL1        0.0618
     85 H          -1.7951   -2.4899    4.0373 H       1  UNL1        0.0620
     86 H           1.9074   -3.2303    1.2900 H       1  UNL1        0.1491
     87 H           3.9873   -1.5171    2.1275 H       1  UNL1        0.0599
     88 H           5.3025   -1.9237    0.0695 H       1  UNL1        0.0381
     89 H           3.9379   -3.0466    0.2334 H       1  UNL1        0.0381
     90 H           4.1481   -0.4673   -3.1066 H       1  UNL1        0.1449
     91 H           5.4056   -0.3598   -1.8262 H       1  UNL1        0.1449
     92 H           4.1129    0.7158    0.0801 H       1  UNL1        0.1498
     93 H           3.7923    4.3196   -1.5950 H       1  UNL1        0.0639
     94 H           3.8194    6.7606   -1.9877 H       1  UNL1        0.0618
     95 H           4.2357    8.3232   -0.1104 H       1  UNL1        0.0618
     96 H           4.6251    7.4584    2.1702 H       1  UNL1        0.0624
     97 H           4.8269    5.5087    3.7151 H       1  UNL1        0.0625
     98 H           4.7761    3.0770    4.0654 H       1  UNL1        0.0641
     99 H           0.4013   -3.4740   -1.1192 H       1  UNL1        0.2099
@<TRIPOS>BOND
     1     1     2    1
     2     2     3    1
     3     2     4    1
     4     2     5    1
     5     5     6   am
     6     6     7    2
     7     6     8    1
     8     8     9    1
     9     9    10    1
    10    10    11    1
    11    11    12    1
    12    12    13    1
    13    13    14    1
    14    14    15    1
    15    15    16    1
    16    16    17    1
    17    17    18    1
    18    18    19    1
    19    19    20    1
    20    20    21    1
    21    21    22    1
    22    22    23   ar
    23    23    24   ar
    24    24    25   ar
    25    25    26   ar
    26    26    27   ar
    27    20    28    1
    28    28    29   am
    29    29    30    2
    30    29    31    1
    31    31    32    1
    32    32    33    1
    33    33    34    2
    34    33    35   am
    35    31    36    1
    36    36    37   am
    37    37    38    2
    38    37    39    1
    39    39    40   ar
    40    40    41   ar
    41    41    42   ar
    42    42    43   ar
    43    43    44   ar
    44    44    45   ar
    45    45    46   ar
    46    46    47   ar
    47    47    48   ar
    48    19    49    1
    49    17     8    1
    50    15    10    1
    51    27    22   ar
    52    48    39   ar
    53    46    41   ar
    54     1    50    1
    55     1    51    1
    56     1    52    1
    57     3    53    1
    58     3    54    1
    59     3    55    1
    60     4    56    1
    61     4    57    1
    62     4    58    1
    63     5    59    1
    64     8    60    1
    65     9    61    1
    66     9    62    1
    67    10    63    1
    68    11    64    1
    69    11    65    1
    70    12    66    1
    71    12    67    1
    72    13    68    1
    73    13    69    1
    74    14    70    1
    75    14    71    1
    76    15    72    1
    77    16    73    1
    78    16    74    1
    79    18    75    1
    80    18    76    1
    81    19    77    1
    82    20    78    1
    83    21    79    1
    84    21    80    1
    85    23    81    1
    86    24    82    1
    87    25    83    1
    88    26    84    1
    89    27    85    1
    90    28    86    1
    91    31    87    1
    92    32    88    1
    93    32    89    1
    94    35    90    1
    95    35    91    1
    96    36    92    1
    97    42    93    1
    98    43    94    1
    99    44    95    1
   100    45    96    1
   101    47    97    1
   102    48    98    1
   103    49    99    1
