@<TRIPOS>MOLECULE
Ritonavir
 98 101 0 0 0
SMALL
GASTEIGER

@<TRIPOS>ATOM
      1 C          -9.8496   -1.0966   -0.4128 C.3     1  UNL1       -0.0567
      2 C          -8.6868   -1.2011   -1.4037 C.3     1  UNL1        0.0021
      3 C          -7.8332   -2.4391   -1.1183 C.3     1  UNL1       -0.0567
      4 C          -7.8412    0.0390   -1.3540 C.ar    1  UNL1        0.0812
      5 N          -7.2234    0.4862   -0.2381 N.ar    1  UNL1       -0.2471
      6 C          -6.5029    1.6167   -0.4751 C.ar    1  UNL1        0.0660
      7 C          -6.5590    2.0894   -1.7837 C.ar    1  UNL1        0.0002
      8 S          -7.5246    1.0369   -2.6698 S.2     1  UNL1       -0.0800
      9 C          -5.7558    2.3288    0.6140 C.3     1  UNL1        0.0585
     10 N          -5.1967    1.3703    1.5792 N.am    1  UNL1       -0.2829
     11 C          -5.8103    1.2382    2.9054 C.3     1  UNL1        0.0050
     12 C          -4.0647    0.5312    1.2515 C.2     1  UNL1        0.3029
     13 O          -3.5811   -0.2258    2.1381 O.2     1  UNL1       -0.2526
     14 N          -3.4895    0.5284   -0.0694 N.am    1  UNL1       -0.2877
     15 C          -2.5232   -0.4892   -0.5096 C.3     1  UNL1        0.1031
     16 C          -3.2209   -1.6325   -1.2951 C.3     1  UNL1       -0.0197
     17 C          -4.1352   -2.4563   -0.3785 C.3     1  UNL1       -0.0605
     18 C          -4.0117   -1.1288   -2.5135 C.3     1  UNL1       -0.0605
     19 C          -1.4188    0.1371   -1.3281 C.2     1  UNL1        0.2339
     20 O          -1.6279    1.2044   -1.9680 O.2     1  UNL1       -0.2738
     21 N          -0.1397   -0.5103   -1.4046 N.am    1  UNL1       -0.3105
     22 C           1.0211    0.1067   -2.0568 C.3     1  UNL1        0.0295
     23 C           1.8757   -0.9529   -2.7958 C.3     1  UNL1       -0.0091
     24 C           2.7264   -1.8252   -1.9036 C.ar    1  UNL1       -0.0456
     25 C           2.1939   -2.9859   -1.3166 C.ar    1  UNL1       -0.0585
     26 C           2.9914   -3.7921   -0.4984 C.ar    1  UNL1       -0.0615
     27 C           4.3297   -3.4581   -0.2753 C.ar    1  UNL1       -0.0617
     28 C           4.8751   -2.3209   -0.8753 C.ar    1  UNL1       -0.0615
     29 C           4.0784   -1.5061   -1.6850 C.ar    1  UNL1       -0.0585
     30 C           1.8264    1.0117   -1.0831 C.3     1  UNL1       -0.0063
     31 C           1.8271    0.5522    0.3970 C.3     1  UNL1        0.0756
     32 C           2.9410    1.2705    1.2024 C.3     1  UNL1        0.0561
     33 C           2.7781    1.0584    2.7227 C.3     1  UNL1       -0.0067
     34 C           3.8795    1.7437    3.4917 C.ar    1  UNL1       -0.0455
     35 C           5.0100    1.0222    3.9116 C.ar    1  UNL1       -0.0585
     36 C           6.0486    1.6709    4.5865 C.ar    1  UNL1       -0.0615
     37 C           5.9694    3.0427    4.8413 C.ar    1  UNL1       -0.0617
     38 C           4.8526    3.7690    4.4189 C.ar    1  UNL1       -0.0615
     39 C           3.8120    3.1243    3.7429 C.ar    1  UNL1       -0.0585
     40 N           4.2510    0.7581    0.7864 N.am    1  UNL1       -0.2755
     41 C           5.1930    1.5129    0.0179 C.2     1  UNL1        0.4009
     42 O           4.9839    2.7302   -0.2395 O.2     1  UNL1       -0.2265
     43 O           6.3393    0.8742   -0.4583 O.3     1  UNL1       -0.4451
     44 C           7.2808    1.5106   -1.3122 C.3     1  UNL1        0.1266
     45 C           8.3120    0.5145   -1.7228 C.ar    1  UNL1        0.0464
     46 C           8.1354   -0.5003   -2.6547 C.ar    1  UNL1        0.0412
     47 N           9.1997   -1.3351   -2.7921 N.ar    1  UNL1       -0.2553
     48 C          10.2199   -1.0034   -1.9695 C.ar    1  UNL1        0.0650
     49 S           9.8336    0.3390   -1.0313 S.2     1  UNL1       -0.0770
     50 O           0.5702    0.8514    0.9554 O.3     1  UNL1       -0.3899
     51 H         -10.4658   -0.2007   -0.6418 H       1  UNL1        0.0236
     52 H          -9.4741   -1.0172    0.6304 H       1  UNL1        0.0236
     53 H         -10.4993   -1.9942   -0.4914 H       1  UNL1        0.0236
     54 H          -9.1128   -1.3034   -2.4260 H       1  UNL1        0.0364
     55 H          -7.4186   -2.4026   -0.0880 H       1  UNL1        0.0236
     56 H          -6.9936   -2.4991   -1.8438 H       1  UNL1        0.0236
     57 H          -8.4481   -3.3583   -1.2224 H       1  UNL1        0.0236
     58 H          -6.0673    2.9745   -2.1647 H       1  UNL1        0.0712
     59 H          -6.4603    3.0298    1.1098 H       1  UNL1        0.0530
     60 H          -4.9398    2.9554    0.1937 H       1  UNL1        0.0530
     61 H          -6.1396    0.1891    3.0623 H       1  UNL1        0.0429
     62 H          -6.6991    1.8942    3.0171 H       1  UNL1        0.0429
     63 H          -5.0723    1.5120    3.6886 H       1  UNL1        0.0429
     64 H          -3.8549    1.1881   -0.7890 H       1  UNL1        0.1510
     65 H          -2.0289   -0.9361    0.3808 H       1  UNL1        0.0598
     66 H          -2.4321   -2.3232   -1.6698 H       1  UNL1        0.0318
     67 H          -3.5612   -2.8481    0.4879 H       1  UNL1        0.0233
     68 H          -4.9772   -1.8382   -0.0027 H       1  UNL1        0.0233
     69 H          -4.5530   -3.3230   -0.9338 H       1  UNL1        0.0233
     70 H          -4.4184   -1.9909   -3.0838 H       1  UNL1        0.0233
     71 H          -3.3556   -0.5502   -3.1962 H       1  UNL1        0.0233
     72 H          -4.8617   -0.4895   -2.1984 H       1  UNL1        0.0233
     73 H           0.0017   -1.3733   -0.8354 H       1  UNL1        0.1490
     74 H           0.6501    0.7724   -2.8682 H       1  UNL1        0.0502
     75 H           2.5325   -0.4300   -3.5261 H       1  UNL1        0.0331
     76 H           1.2037   -1.5971   -3.4046 H       1  UNL1        0.0331
     77 H           1.1673   -3.2751   -1.5009 H       1  UNL1        0.0620
     78 H           2.5737   -4.6811   -0.0440 H       1  UNL1        0.0618
     79 H           4.9462   -4.0853    0.3555 H       1  UNL1        0.0618
     80 H           5.9143   -2.0672   -0.7096 H       1  UNL1        0.0618
     81 H           4.5177   -0.6298   -2.1448 H       1  UNL1        0.0620
     82 H           2.8632    1.1104   -1.4651 H       1  UNL1        0.0309
     83 H           1.3956    2.0370   -1.1205 H       1  UNL1        0.0309
     84 H           2.0198   -0.5458    0.4366 H       1  UNL1        0.0612
     85 H           2.8679    2.3638    1.0064 H       1  UNL1        0.0528
     86 H           2.7693   -0.0304    2.9519 H       1  UNL1        0.0332
     87 H           1.8038    1.4711    3.0633 H       1  UNL1        0.0332
     88 H           5.0897   -0.0391    3.7112 H       1  UNL1        0.0620
     89 H           6.9169    1.1107    4.9087 H       1  UNL1        0.0618
     90 H           6.7749    3.5436    5.3626 H       1  UNL1        0.0618
     91 H           4.7949    4.8324    4.6116 H       1  UNL1        0.0618
     92 H           2.9566    3.7000    3.4114 H       1  UNL1        0.0620
     93 H           4.4872   -0.2353    1.0075 H       1  UNL1        0.1524
     94 H           6.7668    1.8997   -2.2178 H       1  UNL1        0.0755
     95 H           7.7629    2.3568   -0.7773 H       1  UNL1        0.0755
     96 H           7.2244   -0.6330   -3.2233 H       1  UNL1        0.0839
     97 H          11.1529   -1.5482   -1.9257 H       1  UNL1        0.0907
     98 H           0.3206    0.0943    1.5476 H       1  UNL1        0.2099
@<TRIPOS>BOND
     1     1     2    1
     2     2     3    1
     3     2     4    1
     4     4     5   ar
     5     5     6   ar
     6     6     7   ar
     7     7     8   ar
     8     6     9    1
     9     9    10    1
    10    10    11    1
    11    10    12   am
    12    12    13    2
    13    12    14   am
    14    14    15    1
    15    15    16    1
    16    16    17    1
    17    16    18    1
    18    15    19    1
    19    19    20    2
    20    19    21   am
    21    21    22    1
    22    22    23    1
    23    23    24    1
    24    24    25   ar
    25    25    26   ar
    26    26    27   ar
    27    27    28   ar
    28    28    29   ar
    29    22    30    1
    30    30    31    1
    31    31    32    1
    32    32    33    1
    33    33    34    1
    34    34    35   ar
    35    35    36   ar
    36    36    37   ar
    37    37    38   ar
    38    38    39   ar
    39    32    40    1
    40    40    41   am
    41    41    42    2
    42    41    43    1
    43    43    44    1
    44    44    45    1
    45    45    46   ar
    46    46    47   ar
    47    47    48   ar
    48    48    49   ar
    49    31    50    1
    50     8     4   ar
    51    29    24   ar
    52    39    34   ar
    53    49    45   ar
    54     1    51    1
    55     1    52    1
    56     1    53    1
    57     2    54    1
    58     3    55    1
    59     3    56    1
    60     3    57    1
    61     7    58    1
    62     9    59    1
    63     9    60    1
    64    11    61    1
    65    11    62    1
    66    11    63    1
    67    14    64    1
    68    15    65    1
    69    16    66    1
    70    17    67    1
    71    17    68    1
    72    17    69    1
    73    18    70    1
    74    18    71    1
    75    18    72    1
    76    21    73    1
    77    22    74    1
    78    23    75    1
    79    23    76    1
    80    25    77    1
    81    26    78    1
    82    27    79    1
    83    28    80    1
    84    29    81    1
    85    30    82    1
    86    30    83    1
    87    31    84    1
    88    32    85    1
    89    33    86    1
    90    33    87    1
    91    35    88    1
    92    36    89    1
    93    37    90    1
    94    38    91    1
    95    39    92    1
    96    40    93    1
    97    44    94    1
    98    44    95    1
    99    46    96    1
   100    48    97    1
   101    50    98    1
