@<TRIPOS>MOLECULE
Nelfinavir
 85 88 0 0 0
SMALL
GASTEIGER

@<TRIPOS>ATOM
      1 C          -5.3168    2.0466   -1.8253 C.3     1  UNL1       -0.0355
      2 C          -5.4417    3.1902   -0.8476 C.ar    1  UNL1        0.0030
      3 C          -4.3289    3.6452   -0.0910 C.ar    1  UNL1        0.0431
      4 C          -4.4747    4.7630    0.7466 C.ar    1  UNL1       -0.0492
      5 C          -5.7102    5.3946    0.8801 C.ar    1  UNL1       -0.0576
      6 C          -6.8172    4.9203    0.1801 C.ar    1  UNL1       -0.0199
      7 C          -6.6933    3.8221   -0.6803 C.ar    1  UNL1        0.1205
      8 O          -7.8131    3.3598   -1.3727 O.3     1  UNL1       -0.5065
      9 C          -3.0070    2.9833   -0.1463 C.2     1  UNL1        0.2448
     10 O          -1.9705    3.6876   -0.2888 O.2     1  UNL1       -0.2702
     11 N          -2.8942    1.5620    0.0272 N.am    1  UNL1       -0.3052
     12 C          -1.6118    0.8552   -0.0861 C.3     1  UNL1        0.0598
     13 C          -1.6806   -0.5065    0.6417 C.3     1  UNL1        0.0192
     14 S          -2.8075   -1.7032   -0.1596 S.3     1  UNL1       -0.1233
     15 C          -2.1587   -3.0940    0.7692 C.ar    1  UNL1        0.0079
     16 C          -1.0764   -3.8272    0.2656 C.ar    1  UNL1       -0.0483
     17 C          -0.5458   -4.8890    1.0043 C.ar    1  UNL1       -0.0607
     18 C          -1.0987   -5.2236    2.2445 C.ar    1  UNL1       -0.0617
     19 C          -2.1821   -4.4957    2.7470 C.ar    1  UNL1       -0.0607
     20 C          -2.7127   -3.4317    2.0103 C.ar    1  UNL1       -0.0483
     21 C          -1.1637    0.7835   -1.5764 C.3     1  UNL1        0.0869
     22 C           0.0855   -0.0952   -1.8195 C.3     1  UNL1        0.0274
     23 N           1.1393    0.1669   -0.8128 N.3     1  UNL1       -0.2887
     24 C           1.8598    1.4553   -1.0280 C.3     1  UNL1        0.0028
     25 C           3.3721    1.2896   -1.2676 C.3     1  UNL1       -0.0253
     26 C           4.0305    2.5816   -1.8285 C.3     1  UNL1       -0.0488
     27 C           4.3939    2.4644   -3.3140 C.3     1  UNL1       -0.0527
     28 C           5.3325    1.2692   -3.5786 C.3     1  UNL1       -0.0528
     29 C           5.0243    0.0309   -2.7068 C.3     1  UNL1       -0.0499
     30 C           3.5853    0.0624   -2.1679 C.3     1  UNL1       -0.0352
     31 C           3.2281   -1.2052   -1.3818 C.3     1  UNL1       -0.0257
     32 C           1.9650   -1.0333   -0.4891 C.3     1  UNL1        0.0876
     33 C           2.3028   -1.0488    0.9823 C.2     1  UNL1        0.2307
     34 O           2.3993    0.0341    1.6198 O.2     1  UNL1       -0.2741
     35 N           2.5094   -2.3082    1.6473 N.am    1  UNL1       -0.3093
     36 C           2.4307   -2.5079    3.1070 C.3     1  UNL1        0.0262
     37 C           1.0671   -2.0179    3.6335 C.3     1  UNL1       -0.0442
     38 C           2.5651   -4.0129    3.4164 C.3     1  UNL1       -0.0442
     39 C           3.5791   -1.7602    3.8120 C.3     1  UNL1       -0.0442
     40 O          -2.2238    0.3199   -2.3736 O.3     1  UNL1       -0.3887
     41 H          -6.0463    2.1464   -2.6561 H       1  UNL1        0.0279
     42 H          -4.3112    2.0327   -2.2926 H       1  UNL1        0.0279
     43 H          -5.5017    1.0842   -1.3049 H       1  UNL1        0.0279
     44 H          -3.6326    5.1333    1.3191 H       1  UNL1        0.0625
     45 H          -5.8125    6.2474    1.5389 H       1  UNL1        0.0619
     46 H          -7.7744    5.4109    0.3032 H       1  UNL1        0.0654
     47 H          -8.7210    3.7980   -1.2694 H       1  UNL1        0.2921
     48 H          -3.7428    1.0370    0.3375 H       1  UNL1        0.1494
     49 H          -0.8486    1.4477    0.4664 H       1  UNL1        0.0532
     50 H          -2.0314   -0.3414    1.6833 H       1  UNL1        0.0399
     51 H          -0.6636   -0.9398    0.7186 H       1  UNL1        0.0399
     52 H          -0.6411   -3.5696   -0.6913 H       1  UNL1        0.0629
     53 H           0.2960   -5.4490    0.6182 H       1  UNL1        0.0618
     54 H          -0.6854   -6.0435    2.8174 H       1  UNL1        0.0618
     55 H          -2.6071   -4.7530    3.7084 H       1  UNL1        0.0618
     56 H          -3.5453   -2.8656    2.4080 H       1  UNL1        0.0629
     57 H          -0.9159    1.8235   -1.8897 H       1  UNL1        0.0625
     58 H          -0.2503   -1.1540   -1.7918 H       1  UNL1        0.0453
     59 H           0.4755    0.0791   -2.8464 H       1  UNL1        0.0453
     60 H           1.4286    2.0158   -1.8876 H       1  UNL1        0.0430
     61 H           1.7081    2.0958   -0.1332 H       1  UNL1        0.0430
     62 H           3.8545    1.0933   -0.2831 H       1  UNL1        0.0316
     63 H           3.3712    3.4647   -1.6803 H       1  UNL1        0.0268
     64 H           4.9658    2.7876   -1.2619 H       1  UNL1        0.0268
     65 H           3.4606    2.3456   -3.9072 H       1  UNL1        0.0265
     66 H           4.8858    3.4020   -3.6518 H       1  UNL1        0.0265
     67 H           6.3837    1.5827   -3.3967 H       1  UNL1        0.0265
     68 H           5.2537    0.9929   -4.6526 H       1  UNL1        0.0265
     69 H           5.1823   -0.8907   -3.3086 H       1  UNL1        0.0268
     70 H           5.7355    0.0001   -1.8513 H       1  UNL1        0.0268
     71 H           2.9012    0.1206   -3.0456 H       1  UNL1        0.0304
     72 H           3.0519   -2.0269   -2.1110 H       1  UNL1        0.0288
     73 H           4.0960   -1.5195   -0.7592 H       1  UNL1        0.0288
     74 H           1.3577   -1.9538   -0.6320 H       1  UNL1        0.0559
     75 H           2.6229   -3.1482    1.0340 H       1  UNL1        0.1492
     76 H           0.2408   -2.5146    3.0812 H       1  UNL1        0.0250
     77 H           0.9560   -0.9211    3.5077 H       1  UNL1        0.0250
     78 H           0.9583   -2.2483    4.7153 H       1  UNL1        0.0250
     79 H           1.7566   -4.5866    2.9160 H       1  UNL1        0.0250
     80 H           2.5013   -4.2020    4.5100 H       1  UNL1        0.0250
     81 H           3.5411   -4.3985    3.0503 H       1  UNL1        0.0250
     82 H           3.4640   -0.6608    3.7296 H       1  UNL1        0.0250
     83 H           4.5553   -2.0457    3.3644 H       1  UNL1        0.0250
     84 H           3.6013   -2.0103    4.8948 H       1  UNL1        0.0250
     85 H          -2.0150    0.5745   -3.3105 H       1  UNL1        0.2099
@<TRIPOS>BOND
     1     1     2    1
     2     2     3   ar
     3     3     4   ar
     4     4     5   ar
     5     5     6   ar
     6     6     7   ar
     7     7     8    1
     8     3     9    1
     9     9    10    2
    10     9    11   am
    11    11    12    1
    12    12    13    1
    13    13    14    1
    14    14    15    1
    15    15    16   ar
    16    16    17   ar
    17    17    18   ar
    18    18    19   ar
    19    19    20   ar
    20    12    21    1
    21    21    22    1
    22    22    23    1
    23    23    24    1
    24    24    25    1
    25    25    26    1
    26    26    27    1
    27    27    28    1
    28    28    29    1
    29    29    30    1
    30    30    31    1
    31    31    32    1
    32    32    33    1
    33    33    34    2
    34    33    35   am
    35    35    36    1
    36    36    37    1
    37    36    38    1
    38    36    39    1
    39    21    40    1
    40     7     2   ar
    41    20    15   ar
    42    32    23    1
    43    30    25    1
    44     1    41    1
    45     1    42    1
    46     1    43    1
    47     4    44    1
    48     5    45    1
    49     6    46    1
    50     8    47    1
    51    11    48    1
    52    12    49    1
    53    13    50    1
    54    13    51    1
    55    16    52    1
    56    17    53    1
    57    18    54    1
    58    19    55    1
    59    20    56    1
    60    21    57    1
    61    22    58    1
    62    22    59    1
    63    24    60    1
    64    24    61    1
    65    25    62    1
    66    26    63    1
    67    26    64    1
    68    27    65    1
    69    27    66    1
    70    28    67    1
    71    28    68    1
    72    29    69    1
    73    29    70    1
    74    30    71    1
    75    31    72    1
    76    31    73    1
    77    32    74    1
    78    35    75    1
    79    37    76    1
    80    37    77    1
    81    37    78    1
    82    38    79    1
    83    38    80    1
    84    38    81    1
    85    39    82    1
    86    39    83    1
    87    39    84    1
    88    40    85    1
