@<TRIPOS>MOLECULE
Darunavir
 75 78 0 0 0
SMALL
GASTEIGER

@<TRIPOS>ATOM
      1 C          -1.3774   -0.4922    4.8486 C.3     1  UNL1       -0.0615
      2 C          -0.9475   -0.9026    3.4350 C.3     1  UNL1       -0.0323
      3 C           0.5569   -0.6761    3.2550 C.3     1  UNL1       -0.0615
      4 C          -1.7596   -0.1179    2.3808 C.3     1  UNL1        0.0229
      5 N          -1.4631   -0.5889    1.0070 N.3     1  UNL1       -0.1738
      6 C          -1.6148    0.5231    0.0390 C.3     1  UNL1        0.0483
      7 C          -1.0805    0.1896   -1.3794 C.3     1  UNL1        0.0882
      8 C           0.4585    0.3648   -1.4942 C.3     1  UNL1        0.0573
      9 C           0.9936   -0.0696   -2.8793 C.3     1  UNL1       -0.0066
     10 C           0.6092    0.8793   -3.9866 C.ar    1  UNL1       -0.0455
     11 C          -0.3531    0.5087   -4.9420 C.ar    1  UNL1       -0.0585
     12 C          -0.7137    1.3974   -5.9595 C.ar    1  UNL1       -0.0615
     13 C          -0.1158    2.6584   -6.0330 C.ar    1  UNL1       -0.0617
     14 C           0.8444    3.0330   -5.0891 C.ar    1  UNL1       -0.0615
     15 C           1.2075    2.1480   -4.0694 C.ar    1  UNL1       -0.0585
     16 N           1.1448   -0.4280   -0.4699 N.am    1  UNL1       -0.2754
     17 C           2.4279   -0.0580    0.0503 C.2     1  UNL1        0.4009
     18 O           2.9405    1.0549   -0.2497 O.2     1  UNL1       -0.2265
     19 O           3.1080   -0.9503    0.8848 O.3     1  UNL1       -0.4443
     20 C           4.3866   -0.6773    1.4591 C.3     1  UNL1        0.1354
     21 C           4.8971   -1.9018    2.1890 C.3     1  UNL1        0.0881
     22 O           5.6584   -1.4750    3.2895 O.3     1  UNL1       -0.3473
     23 C           5.1336   -0.2291    3.6891 C.3     1  UNL1        0.1656
     24 C           4.3011    0.3600    2.5648 C.3     1  UNL1        0.0515
     25 C           4.9839    1.6691    2.2462 C.3     1  UNL1       -0.0184
     26 C           6.3311    1.5285    2.9162 C.3     1  UNL1        0.0512
     27 O           6.1942    0.6460    4.0017 O.3     1  UNL1       -0.3509
     28 O          -1.7063    1.0550   -2.2924 O.3     1  UNL1       -0.3886
     29 S          -2.4929   -1.9602    0.5914 S.O2    1  UNL1        0.0609
     30 O          -1.6822   -2.9359   -0.2152 O.2     1  UNL1       -0.1528
     31 O          -2.9660   -2.6770    1.8260 O.2     1  UNL1       -0.1528
     32 C          -3.9266   -1.4883   -0.3293 C.ar    1  UNL1        0.1056
     33 C          -4.9698   -0.8015    0.3074 C.ar    1  UNL1       -0.0336
     34 C          -6.1013   -0.4114   -0.4147 C.ar    1  UNL1       -0.0392
     35 C          -6.2045   -0.7098   -1.7804 C.ar    1  UNL1        0.0247
     36 C          -5.1674   -1.4065   -2.4156 C.ar    1  UNL1       -0.0392
     37 C          -4.0363   -1.7978   -1.6933 C.ar    1  UNL1       -0.0336
     38 N          -7.3606   -0.3081   -2.5199 N.pl3   1  UNL1       -0.3580
     39 H          -1.1864    0.5893    5.0190 H       1  UNL1        0.0233
     40 H          -2.4606   -0.6928    4.9926 H       1  UNL1        0.0233
     41 H          -0.8163   -1.0792    5.6068 H       1  UNL1        0.0233
     42 H          -1.1399   -1.9901    3.3292 H       1  UNL1        0.0308
     43 H           1.1274   -1.1989    4.0521 H       1  UNL1        0.0233
     44 H           0.8827   -1.0916    2.2819 H       1  UNL1        0.0233
     45 H           0.7987    0.4077    3.2904 H       1  UNL1        0.0233
     46 H          -1.5048    0.9592    2.5062 H       1  UNL1        0.0446
     47 H          -2.8479   -0.1944    2.5966 H       1  UNL1        0.0446
     48 H          -1.0585    1.4196    0.3938 H       1  UNL1        0.0470
     49 H          -2.6804    0.8348   -0.0145 H       1  UNL1        0.0470
     50 H          -1.3219   -0.8586   -1.6532 H       1  UNL1        0.0625
     51 H           0.6914    1.4418   -1.3355 H       1  UNL1        0.0528
     52 H           0.6471   -1.1019   -3.1071 H       1  UNL1        0.0332
     53 H           2.1043   -0.1155   -2.8442 H       1  UNL1        0.0332
     54 H          -0.8299   -0.4625   -4.8939 H       1  UNL1        0.0620
     55 H          -1.4581    1.1090   -6.6903 H       1  UNL1        0.0618
     56 H          -0.3964    3.3451   -6.8211 H       1  UNL1        0.0618
     57 H           1.3072    4.0097   -5.1474 H       1  UNL1        0.0618
     58 H           1.9529    2.4501   -3.3440 H       1  UNL1        0.0620
     59 H           0.8060   -1.3969   -0.2738 H       1  UNL1        0.1524
     60 H           5.1167   -0.3980    0.6654 H       1  UNL1        0.0762
     61 H           5.5270   -2.5211    1.5154 H       1  UNL1        0.0598
     62 H           4.0512   -2.5259    2.5559 H       1  UNL1        0.0598
     63 H           4.5060   -0.3729    4.5960 H       1  UNL1        0.0913
     64 H           3.2505    0.5247    2.8916 H       1  UNL1        0.0387
     65 H           4.4217    2.5055    2.7171 H       1  UNL1        0.0293
     66 H           5.0861    1.8699    1.1579 H       1  UNL1        0.0293
     67 H           7.0748    1.1150    2.1993 H       1  UNL1        0.0561
     68 H           6.6921    2.5153    3.2761 H       1  UNL1        0.0561
     69 H          -2.6108    0.6866   -2.4716 H       1  UNL1        0.2099
     70 H          -4.9058   -0.5632    1.3607 H       1  UNL1        0.0638
     71 H          -6.8966    0.1233    0.0893 H       1  UNL1        0.0636
     72 H          -5.2352   -1.6457   -3.4694 H       1  UNL1        0.0636
     73 H          -3.2469   -2.3344   -2.2027 H       1  UNL1        0.0638
     74 H          -7.4465   -0.5262   -3.5377 H       1  UNL1        0.1423
     75 H          -8.1388    0.2109   -2.0551 H       1  UNL1        0.1423
@<TRIPOS>BOND
     1     1     2    1
     2     2     3    1
     3     2     4    1
     4     4     5    1
     5     5     6    1
     6     6     7    1
     7     7     8    1
     8     8     9    1
     9     9    10    1
    10    10    11   ar
    11    11    12   ar
    12    12    13   ar
    13    13    14   ar
    14    14    15   ar
    15     8    16    1
    16    16    17   am
    17    17    18    2
    18    17    19    1
    19    19    20    1
    20    20    21    1
    21    21    22    1
    22    22    23    1
    23    23    24    1
    24    24    25    1
    25    25    26    1
    26    26    27    1
    27     7    28    1
    28     5    29    1
    29    29    30    2
    30    29    31    2
    31    29    32    1
    32    32    33   ar
    33    33    34   ar
    34    34    35   ar
    35    35    36   ar
    36    36    37   ar
    37    35    38    1
    38    15    10   ar
    39    24    20    1
    40    27    23    1
    41    37    32   ar
    42     1    39    1
    43     1    40    1
    44     1    41    1
    45     2    42    1
    46     3    43    1
    47     3    44    1
    48     3    45    1
    49     4    46    1
    50     4    47    1
    51     6    48    1
    52     6    49    1
    53     7    50    1
    54     8    51    1
    55     9    52    1
    56     9    53    1
    57    11    54    1
    58    12    55    1
    59    13    56    1
    60    14    57    1
    61    15    58    1
    62    16    59    1
    63    20    60    1
    64    21    61    1
    65    21    62    1
    66    23    63    1
    67    24    64    1
    68    25    65    1
    69    25    66    1
    70    26    67    1
    71    26    68    1
    72    28    69    1
    73    33    70    1
    74    34    71    1
    75    36    72    1
    76    37    73    1
    77    38    74    1
    78    38    75    1
