@<TRIPOS>MOLECULE
Tipranavir
 75 78 0 0 0
SMALL
GASTEIGER

@<TRIPOS>ATOM
      1 C          -4.1582   -2.1391   -1.2267 C.3     1  UNL1       -0.0652
      2 C          -3.8797   -2.0195    0.2723 C.3     1  UNL1       -0.0523
      3 C          -4.4863   -0.7459    0.8968 C.3     1  UNL1       -0.0126
      4 C          -3.6368    0.5736    0.8364 C.3     1  UNL1        0.1209
      5 C          -2.5153    0.5572    1.9226 C.3     1  UNL1        0.0452
      6 C          -1.2962   -0.2431    1.5307 C.2     1  UNL1        0.1084
      7 C          -0.9005   -0.3192    0.2403 C.2     1  UNL1        0.0811
      8 C          -1.7509    0.3419   -0.7777 C.2     1  UNL1        0.3395
      9 O          -1.3215    0.5379   -1.9455 O.2     1  UNL1       -0.2452
     10 O          -3.0457    0.7557   -0.4549 O.3     1  UNL1       -0.4543
     11 C           0.3811   -1.0227   -0.2250 C.3     1  UNL1        0.0190
     12 C           0.6929   -2.3863    0.4658 C.3     1  UNL1       -0.0447
     13 C           1.8707   -2.3788    1.4500 C.3     1  UNL1       -0.0644
     14 C           1.5703   -0.0743   -0.2982 C.ar    1  UNL1       -0.0379
     15 C           2.4855   -0.1944   -1.3603 C.ar    1  UNL1       -0.0356
     16 C           3.6231    0.6245   -1.4331 C.ar    1  UNL1        0.0484
     17 C           3.8388    1.5837   -0.4278 C.ar    1  UNL1       -0.0393
     18 C           2.9441    1.7022    0.6364 C.ar    1  UNL1       -0.0597
     19 C           1.8221    0.8760    0.7088 C.ar    1  UNL1       -0.0579
     20 N           4.5375    0.4579   -2.5315 N.pl3   1  UNL1       -0.2149
     21 S           6.1467    1.1079   -2.5541 S.O2    1  UNL1        0.0896
     22 O           6.8876    0.5507   -3.7365 O.2     1  UNL1       -0.1485
     23 O           6.0740    2.6043   -2.6762 O.2     1  UNL1       -0.1485
     24 C           6.9945    0.6478   -1.0861 C.ar    1  UNL1        0.1969
     25 N           6.6072   -0.4654   -0.4085 N.ar    1  UNL1       -0.2348
     26 C           7.2212   -0.8590    0.7385 C.ar    1  UNL1        0.0414
     27 C           8.3005   -0.1220    1.2532 C.ar    1  UNL1        0.0730
     28 C           8.6956    1.0433    0.5767 C.ar    1  UNL1       -0.0453
     29 C           8.0500    1.4249   -0.6006 C.ar    1  UNL1       -0.0157
     30 C           8.9526   -0.5171    2.5534 C.3     1  UNL1        0.4188
     31 F           8.9094   -1.8901    2.7235 F       1  UNL1       -0.1658
     32 F          10.2782   -0.1194    2.5752 F       1  UNL1       -0.1658
     33 F           8.2832    0.0880    3.6005 F       1  UNL1       -0.1658
     34 O          -0.5465   -0.8315    2.5454 O.2     1  UNL1       -0.5104
     35 C          -4.5849    1.7896    1.1258 C.3     1  UNL1       -0.0084
     36 C          -5.2362    2.4457   -0.1122 C.3     1  UNL1       -0.0241
     37 C          -6.2158    1.5491   -0.8215 C.ar    1  UNL1       -0.0472
     38 C          -7.4772    1.2948   -0.2568 C.ar    1  UNL1       -0.0586
     39 C          -8.3774    0.4401   -0.9003 C.ar    1  UNL1       -0.0615
     40 C          -8.0272   -0.1632   -2.1112 C.ar    1  UNL1       -0.0617
     41 C          -6.7771    0.0892   -2.6822 C.ar    1  UNL1       -0.0615
     42 C          -5.8730    0.9418   -2.0417 C.ar    1  UNL1       -0.0586
     43 H          -5.2526   -2.1845   -1.4106 H       1  UNL1        0.0230
     44 H          -3.7001   -3.0736   -1.6132 H       1  UNL1        0.0230
     45 H          -3.7341   -1.2861   -1.7900 H       1  UNL1        0.0230
     46 H          -2.7981   -2.1098    0.4686 H       1  UNL1        0.0264
     47 H          -4.3516   -2.8991    0.7621 H       1  UNL1        0.0264
     48 H          -5.4823   -0.5937    0.4392 H       1  UNL1        0.0304
     49 H          -4.7083   -0.9682    1.9637 H       1  UNL1        0.0304
     50 H          -2.1416    1.5870    2.1084 H       1  UNL1        0.0382
     51 H          -2.9213    0.1863    2.8884 H       1  UNL1        0.0382
     52 H           0.1626   -1.3203   -1.2757 H       1  UNL1        0.0400
     53 H          -0.2124   -2.7842    0.9720 H       1  UNL1        0.0272
     54 H           0.9427   -3.1349   -0.3192 H       1  UNL1        0.0272
     55 H           1.7621   -1.5887    2.2182 H       1  UNL1        0.0230
     56 H           2.8256   -2.2196    0.9054 H       1  UNL1        0.0230
     57 H           1.9279   -3.3615    1.9636 H       1  UNL1        0.0230
     58 H           2.3215   -0.9413   -2.1278 H       1  UNL1        0.0639
     59 H           4.6938    2.2434   -0.4551 H       1  UNL1        0.0636
     60 H           3.1240    2.4354    1.4122 H       1  UNL1        0.0618
     61 H           1.1589    0.9808    1.5551 H       1  UNL1        0.0620
     62 H           4.2712   -0.1706   -3.3222 H       1  UNL1        0.1737
     63 H           6.8633   -1.7439    1.2484 H       1  UNL1        0.0836
     64 H           9.5002    1.6587    0.9592 H       1  UNL1        0.0625
     65 H           8.3642    2.3197   -1.1226 H       1  UNL1        0.0653
     66 H          -0.8134   -0.7499    3.5190 H       1  UNL1        0.2917
     67 H          -5.3752    1.5023    1.8544 H       1  UNL1        0.0307
     68 H          -4.0188    2.6085    1.6199 H       1  UNL1        0.0307
     69 H          -5.7793    3.3571    0.2212 H       1  UNL1        0.0314
     70 H          -4.4498    2.8032   -0.8119 H       1  UNL1        0.0314
     71 H          -7.7578    1.7514    0.6842 H       1  UNL1        0.0620
     72 H          -9.3459    0.2437   -0.4589 H       1  UNL1        0.0618
     73 H          -8.7244   -0.8261   -2.6070 H       1  UNL1        0.0618
     74 H          -6.5059   -0.3804   -3.6189 H       1  UNL1        0.0618
     75 H          -4.9057    1.1218   -2.4937 H       1  UNL1        0.0620
@<TRIPOS>BOND
     1     1     2    1
     2     2     3    1
     3     3     4    1
     4     4     5    1
     5     5     6    1
     6     6     7    2
     7     7     8    1
     8     8     9    2
     9     8    10    1
    10     7    11    1
    11    11    12    1
    12    12    13    1
    13    11    14    1
    14    14    15   ar
    15    15    16   ar
    16    16    17   ar
    17    17    18   ar
    18    18    19   ar
    19    16    20    1
    20    20    21    1
    21    21    22    2
    22    21    23    2
    23    21    24    1
    24    24    25   ar
    25    25    26   ar
    26    26    27   ar
    27    27    28   ar
    28    28    29   ar
    29    27    30    1
    30    30    31    1
    31    30    32    1
    32    30    33    1
    33     6    34    1
    34     4    35    1
    35    35    36    1
    36    36    37    1
    37    37    38   ar
    38    38    39   ar
    39    39    40   ar
    40    40    41   ar
    41    41    42   ar
    42    10     4    1
    43    19    14   ar
    44    29    24   ar
    45    42    37   ar
    46     1    43    1
    47     1    44    1
    48     1    45    1
    49     2    46    1
    50     2    47    1
    51     3    48    1
    52     3    49    1
    53     5    50    1
    54     5    51    1
    55    11    52    1
    56    12    53    1
    57    12    54    1
    58    13    55    1
    59    13    56    1
    60    13    57    1
    61    15    58    1
    62    17    59    1
    63    18    60    1
    64    19    61    1
    65    20    62    1
    66    26    63    1
    67    28    64    1
    68    29    65    1
    69    34    66    1
    70    35    67    1
    71    35    68    1
    72    36    69    1
    73    36    70    1
    74    38    71    1
    75    39    72    1
    76    40    73    1
    77    41    74    1
    78    42    75    1
