@<TRIPOS>MOLECULE
Amprenavir
 70 72 0 0 0
SMALL
GASTEIGER

@<TRIPOS>ATOM
      1 C          -2.2581    3.9256   -1.0138 C.3     1  UNL1       -0.0615
      2 C          -3.4359    2.9443   -1.0544 C.3     1  UNL1       -0.0323
      3 C          -4.4341    3.2480    0.0700 C.3     1  UNL1       -0.0615
      4 C          -2.9607    1.4789   -1.0083 C.3     1  UNL1        0.0229
      5 N          -2.2500    1.1913    0.2633 N.3     1  UNL1       -0.1738
      6 C          -0.8219    0.8887    0.0184 C.3     1  UNL1        0.0483
      7 C           0.0315    1.0277    1.3000 C.3     1  UNL1        0.0882
      8 C           1.5276    0.6968    1.0326 C.3     1  UNL1        0.0573
      9 C           2.3982    0.8280    2.3037 C.3     1  UNL1       -0.0066
     10 C           2.6573    2.2607    2.6997 C.ar    1  UNL1       -0.0455
     11 C           2.0650    2.8005    3.8547 C.ar    1  UNL1       -0.0585
     12 C           2.3020    4.1315    4.2118 C.ar    1  UNL1       -0.0615
     13 C           3.1340    4.9310    3.4236 C.ar    1  UNL1       -0.0617
     14 C           3.7323    4.4004    2.2776 C.ar    1  UNL1       -0.0615
     15 C           3.4978    3.0702    1.9164 C.ar    1  UNL1       -0.0585
     16 N           1.6390   -0.6830    0.5435 N.am    1  UNL1       -0.2754
     17 C           1.8428   -1.0169   -0.8343 C.2     1  UNL1        0.4009
     18 O           2.1382   -0.1215   -1.6728 O.2     1  UNL1       -0.2265
     19 O           1.6877   -2.3456   -1.2412 O.3     1  UNL1       -0.4447
     20 C           1.8338   -2.7677   -2.5966 C.3     1  UNL1        0.1299
     21 C           3.2719   -2.7939   -3.0218 C.3     1  UNL1        0.0101
     22 C           3.3174   -3.9637   -3.9842 C.3     1  UNL1        0.0513
     23 O           2.2296   -4.8252   -3.7326 O.3     1  UNL1       -0.3760
     24 C           1.4143   -4.2141   -2.7594 C.3     1  UNL1        0.0848
     25 O          -0.1256    2.3187    1.8330 O.3     1  UNL1       -0.3886
     26 S          -3.0398   -0.1049    1.1526 S.O2    1  UNL1        0.0609
     27 O          -4.5348    0.0091    1.0317 O.2     1  UNL1       -0.1528
     28 O          -2.7011    0.0158    2.6121 O.2     1  UNL1       -0.1528
     29 C          -2.5420   -1.6926    0.5604 C.ar    1  UNL1        0.1056
     30 C          -3.0880   -2.2018   -0.6257 C.ar    1  UNL1       -0.0336
     31 C          -2.6641   -3.4382   -1.1223 C.ar    1  UNL1       -0.0392
     32 C          -1.6881   -4.1766   -0.4387 C.ar    1  UNL1        0.0247
     33 C          -1.1368   -3.6647    0.7438 C.ar    1  UNL1       -0.0392
     34 C          -1.5630   -2.4303    1.2422 C.ar    1  UNL1       -0.0336
     35 N          -1.2607   -5.4448   -0.9419 N.pl3   1  UNL1       -0.3580
     36 H          -2.6238    4.9641   -1.1607 H       1  UNL1        0.0233
     37 H          -1.5373    3.6952   -1.8269 H       1  UNL1        0.0233
     38 H          -1.7324    3.8723   -0.0376 H       1  UNL1        0.0233
     39 H          -3.9638    3.0951   -2.0223 H       1  UNL1        0.0308
     40 H          -4.8141    4.2872   -0.0280 H       1  UNL1        0.0233
     41 H          -3.9551    3.1375    1.0664 H       1  UNL1        0.0233
     42 H          -5.3016    2.5571    0.0083 H       1  UNL1        0.0233
     43 H          -3.8454    0.8255   -1.1593 H       1  UNL1        0.0446
     44 H          -2.3245    1.2817   -1.9018 H       1  UNL1        0.0446
     45 H          -0.7142   -0.1202   -0.4286 H       1  UNL1        0.0470
     46 H          -0.4049    1.6058   -0.7242 H       1  UNL1        0.0470
     47 H          -0.3274    0.3032    2.0560 H       1  UNL1        0.0625
     48 H           1.9201    1.3992    0.2646 H       1  UNL1        0.0528
     49 H           3.3832    0.3457    2.1175 H       1  UNL1        0.0332
     50 H           1.9274    0.2661    3.1405 H       1  UNL1        0.0332
     51 H           1.4141    2.1950    4.4731 H       1  UNL1        0.0620
     52 H           1.8396    4.5435    5.0995 H       1  UNL1        0.0618
     53 H           3.3160    5.9611    3.7014 H       1  UNL1        0.0618
     54 H           4.3783    5.0199    1.6691 H       1  UNL1        0.0618
     55 H           3.9696    2.6709    1.0271 H       1  UNL1        0.0620
     56 H           1.4125   -1.4630    1.2018 H       1  UNL1        0.1524
     57 H           1.2327   -2.1236   -3.2785 H       1  UNL1        0.0758
     58 H           3.5735   -1.8434   -3.5132 H       1  UNL1        0.0324
     59 H           3.9339   -2.9967   -2.1503 H       1  UNL1        0.0324
     60 H           3.2459   -3.5943   -5.0302 H       1  UNL1        0.0561
     61 H           4.2712   -4.5221   -3.8715 H       1  UNL1        0.0561
     62 H           1.5326   -4.7650   -1.8004 H       1  UNL1        0.0597
     63 H           0.3502   -4.2733   -3.0726 H       1  UNL1        0.0597
     64 H           0.2556    2.9608    1.1783 H       1  UNL1        0.2099
     65 H          -3.8380   -1.6418   -1.1684 H       1  UNL1        0.0638
     66 H          -3.0950   -3.8200   -2.0392 H       1  UNL1        0.0636
     67 H          -0.3775   -4.2215    1.2783 H       1  UNL1        0.0636
     68 H          -1.1216   -2.0493    2.1535 H       1  UNL1        0.0638
     69 H          -0.5332   -6.0014   -0.4402 H       1  UNL1        0.1423
     70 H          -1.6624   -5.8327   -1.8245 H       1  UNL1        0.1423
@<TRIPOS>BOND
     1     1     2    1
     2     2     3    1
     3     2     4    1
     4     4     5    1
     5     5     6    1
     6     6     7    1
     7     7     8    1
     8     8     9    1
     9     9    10    1
    10    10    11   ar
    11    11    12   ar
    12    12    13   ar
    13    13    14   ar
    14    14    15   ar
    15     8    16    1
    16    16    17   am
    17    17    18    2
    18    17    19    1
    19    19    20    1
    20    20    21    1
    21    21    22    1
    22    22    23    1
    23    23    24    1
    24     7    25    1
    25     5    26    1
    26    26    27    2
    27    26    28    2
    28    26    29    1
    29    29    30   ar
    30    30    31   ar
    31    31    32   ar
    32    32    33   ar
    33    33    34   ar
    34    32    35    1
    35    15    10   ar
    36    24    20    1
    37    34    29   ar
    38     1    36    1
    39     1    37    1
    40     1    38    1
    41     2    39    1
    42     3    40    1
    43     3    41    1
    44     3    42    1
    45     4    43    1
    46     4    44    1
    47     6    45    1
    48     6    46    1
    49     7    47    1
    50     8    48    1
    51     9    49    1
    52     9    50    1
    53    11    51    1
    54    12    52    1
    55    13    53    1
    56    14    54    1
    57    15    55    1
    58    16    56    1
    59    20    57    1
    60    21    58    1
    61    21    59    1
    62    22    60    1
    63    22    61    1
    64    24    62    1
    65    24    63    1
    66    25    64    1
    67    30    65    1
    68    31    66    1
    69    33    67    1
    70    34    68    1
    71    35    69    1
    72    35    70    1
