@<TRIPOS>MOLECULE
Fosamprenavir
 75 77 0 0 0
SMALL
GASTEIGER

@<TRIPOS>ATOM
      1 C          -2.1056   -2.8118   -3.0747 C.3     1  UNL1       -0.0615
      2 C          -2.5146   -2.2704   -1.6997 C.3     1  UNL1       -0.0323
      3 C          -3.1151   -3.3961   -0.8464 C.3     1  UNL1       -0.0615
      4 C          -1.3028   -1.6224   -1.0001 C.3     1  UNL1        0.0229
      5 N          -1.6757   -1.0385    0.3056 N.3     1  UNL1       -0.1738
      6 C          -0.5731   -1.0286    1.2933 C.3     1  UNL1        0.0491
      7 C           0.7105   -0.2714    0.8453 C.3     1  UNL1        0.1030
      8 C           1.9004   -0.6138    1.7990 C.3     1  UNL1        0.0582
      9 C           1.7553   -0.1149    3.2669 C.3     1  UNL1       -0.0066
     10 C           1.5943    1.3803    3.4447 C.ar    1  UNL1       -0.0455
     11 C           2.7189    2.2205    3.5363 C.ar    1  UNL1       -0.0585
     12 C           2.5603    3.6014    3.6879 C.ar    1  UNL1       -0.0615
     13 C           1.2810    4.1549    3.7727 C.ar    1  UNL1       -0.0617
     14 C           0.1580    3.3264    3.7245 C.ar    1  UNL1       -0.0615
     15 C           0.3123    1.9453    3.5749 C.ar    1  UNL1       -0.0585
     16 N           3.1787   -0.1961    1.2117 N.am    1  UNL1       -0.2754
     17 C           3.7477   -0.8382    0.0643 C.2     1  UNL1        0.4009
     18 O           3.2526   -1.9111   -0.3792 O.2     1  UNL1       -0.2265
     19 O           4.8555   -0.2573   -0.5607 O.3     1  UNL1       -0.4447
     20 C           5.4387   -0.7711   -1.7594 C.3     1  UNL1        0.1299
     21 C           4.5805   -0.4556   -2.9513 C.3     1  UNL1        0.0101
     22 C           5.0999    0.8957   -3.3999 C.3     1  UNL1        0.0513
     23 O           6.4027    1.0905   -2.8964 O.3     1  UNL1       -0.3760
     24 C           6.7114   -0.0098   -2.0718 C.3     1  UNL1        0.0848
     25 O           0.4506    1.1206    0.8270 O.3     1  UNL1       -0.2803
     26 P           1.1941    1.9038   -0.5025 P.3     1  UNL1        0.4727
     27 O           0.4402    3.1857   -0.7740 O.2     1  UNL1       -0.2275
     28 O           1.1548    0.9498   -1.9025 O.3     1  UNL1       -0.3026
     29 O           2.7949    2.2968   -0.1219 O.3     1  UNL1       -0.3026
     30 S          -2.5101    0.4995    0.1670 S.O2    1  UNL1        0.0609
     31 O          -2.2916    1.3477    1.3889 O.2     1  UNL1       -0.1528
     32 O          -2.0268    1.2550   -1.0401 O.2     1  UNL1       -0.1528
     33 C          -4.2386    0.1966    0.0298 C.ar    1  UNL1        0.1056
     34 C          -4.9798    0.7230   -1.0379 C.ar    1  UNL1       -0.0336
     35 C          -6.3485    0.4566   -1.1414 C.ar    1  UNL1       -0.0392
     36 C          -6.9887   -0.3356   -0.1778 C.ar    1  UNL1        0.0247
     37 C          -6.2474   -0.8568    0.8920 C.ar    1  UNL1       -0.0392
     38 C          -4.8793   -0.5896    0.9958 C.ar    1  UNL1       -0.0336
     39 N          -8.3879   -0.6099   -0.2854 N.pl3   1  UNL1       -0.3580
     40 H          -2.9865   -3.2472   -3.5932 H       1  UNL1        0.0233
     41 H          -1.3254   -3.5967   -2.9725 H       1  UNL1        0.0233
     42 H          -1.7066   -1.9897   -3.7067 H       1  UNL1        0.0233
     43 H          -3.2955   -1.5013   -1.8693 H       1  UNL1        0.0308
     44 H          -2.3631   -4.1938   -0.6648 H       1  UNL1        0.0233
     45 H          -3.9928   -3.8404   -1.3622 H       1  UNL1        0.0233
     46 H          -3.4600   -3.0021    0.1320 H       1  UNL1        0.0233
     47 H          -0.5306   -2.4131   -0.8608 H       1  UNL1        0.0446
     48 H          -0.8574   -0.8495   -1.6616 H       1  UNL1        0.0446
     49 H          -0.3130   -2.0870    1.5140 H       1  UNL1        0.0470
     50 H          -0.9462   -0.6185    2.2532 H       1  UNL1        0.0470
     51 H           0.9773   -0.6743   -0.1509 H       1  UNL1        0.0634
     52 H           1.9436   -1.7232    1.8825 H       1  UNL1        0.0529
     53 H           0.8985   -0.6367    3.7449 H       1  UNL1        0.0332
     54 H           2.6500   -0.4468    3.8382 H       1  UNL1        0.0332
     55 H           3.7196    1.8107    3.5112 H       1  UNL1        0.0620
     56 H           3.4308    4.2418    3.7483 H       1  UNL1        0.0618
     57 H           1.1603    5.2240    3.8905 H       1  UNL1        0.0618
     58 H          -0.8330    3.7536    3.8071 H       1  UNL1        0.0618
     59 H          -0.5689    1.3191    3.5548 H       1  UNL1        0.0620
     60 H           3.7279    0.5798    1.6360 H       1  UNL1        0.1524
     61 H           5.6370   -1.8619   -1.6603 H       1  UNL1        0.0758
     62 H           3.4971   -0.4214   -2.7081 H       1  UNL1        0.0324
     63 H           4.7553   -1.2109   -3.7495 H       1  UNL1        0.0324
     64 H           4.4412    1.7007   -3.0083 H       1  UNL1        0.0561
     65 H           5.1131    0.9583   -4.5089 H       1  UNL1        0.0561
     66 H           7.4232   -0.6721   -2.6116 H       1  UNL1        0.0597
     67 H           7.2037    0.3442   -1.1406 H       1  UNL1        0.0597
     68 H           1.6128    1.4918   -2.5933 H       1  UNL1        0.2220
     69 H           3.1594    2.7091   -0.9450 H       1  UNL1        0.2220
     70 H          -4.5022    1.3330   -1.7933 H       1  UNL1        0.0638
     71 H          -6.9093    0.8656   -1.9724 H       1  UNL1        0.0636
     72 H          -6.7289   -1.4700    1.6432 H       1  UNL1        0.0636
     73 H          -4.3170   -1.0011    1.8247 H       1  UNL1        0.0638
     74 H          -8.8735   -1.1991    0.4273 H       1  UNL1        0.1423
     75 H          -8.9484   -0.2263   -1.0788 H       1  UNL1        0.1423
@<TRIPOS>BOND
     1     1     2    1
     2     2     3    1
     3     2     4    1
     4     4     5    1
     5     5     6    1
     6     6     7    1
     7     7     8    1
     8     8     9    1
     9     9    10    1
    10    10    11   ar
    11    11    12   ar
    12    12    13   ar
    13    13    14   ar
    14    14    15   ar
    15     8    16    1
    16    16    17   am
    17    17    18    2
    18    17    19    1
    19    19    20    1
    20    20    21    1
    21    21    22    1
    22    22    23    1
    23    23    24    1
    24     7    25    1
    25    25    26    1
    26    26    27    2
    27    26    28    1
    28    26    29    1
    29     5    30    1
    30    30    31    2
    31    30    32    2
    32    30    33    1
    33    33    34   ar
    34    34    35   ar
    35    35    36   ar
    36    36    37   ar
    37    37    38   ar
    38    36    39    1
    39    15    10   ar
    40    24    20    1
    41    38    33   ar
    42     1    40    1
    43     1    41    1
    44     1    42    1
    45     2    43    1
    46     3    44    1
    47     3    45    1
    48     3    46    1
    49     4    47    1
    50     4    48    1
    51     6    49    1
    52     6    50    1
    53     7    51    1
    54     8    52    1
    55     9    53    1
    56     9    54    1
    57    11    55    1
    58    12    56    1
    59    13    57    1
    60    14    58    1
    61    15    59    1
    62    16    60    1
    63    20    61    1
    64    21    62    1
    65    21    63    1
    66    22    64    1
    67    22    65    1
    68    24    66    1
    69    24    67    1
    70    28    68    1
    71    29    69    1
    72    34    70    1
    73    35    71    1
    74    37    72    1
    75    38    73    1
    76    39    74    1
    77    39    75    1
