@<TRIPOS>MOLECULE
Cinanserine
 48 49 0 0 0
SMALL
GASTEIGER

@<TRIPOS>ATOM
      1 C          -4.3608    2.4491   -1.4439 C.3     1  UNL1       -0.0131
      2 N          -3.3431    1.3862   -1.4874 N.3     1  UNL1       -0.3083
      3 C          -3.4980    0.6118   -2.7314 C.3     1  UNL1       -0.0131
      4 C          -3.4723    0.5160   -0.2975 C.3     1  UNL1       -0.0009
      5 C          -2.2137   -0.3529   -0.0890 C.3     1  UNL1       -0.0309
      6 C          -2.4809   -1.8343   -0.3776 C.3     1  UNL1       -0.0005
      7 S          -0.9409   -2.8209   -0.3144 S.3     1  UNL1       -0.1233
      8 C          -0.8301   -2.8676    1.4834 C.ar    1  UNL1        0.0291
      9 C          -1.6374   -3.7727    2.1861 C.ar    1  UNL1       -0.0465
     10 C          -1.5726   -3.8426    3.5790 C.ar    1  UNL1       -0.0606
     11 C          -0.6954   -3.0139    4.2796 C.ar    1  UNL1       -0.0599
     12 C           0.1314   -2.1251    3.5882 C.ar    1  UNL1       -0.0394
     13 C           0.0910   -2.0582    2.1836 C.ar    1  UNL1        0.0471
     14 N           0.9561   -1.1550    1.4724 N.am    1  UNL1       -0.2810
     15 C           2.3569   -1.0008    1.7710 C.2     1  UNL1        0.2411
     16 O           2.8842   -1.6810    2.6917 O.2     1  UNL1       -0.2705
     17 C           3.2133   -0.0490    1.0335 C.2     1  UNL1        0.0010
     18 C           2.9357    0.3896   -0.2031 C.2     1  UNL1       -0.0497
     19 C           3.8035    1.3337   -0.9490 C.ar    1  UNL1       -0.0249
     20 C           4.6887    2.2203   -0.3012 C.ar    1  UNL1       -0.0546
     21 C           5.4766    3.1026   -1.0474 C.ar    1  UNL1       -0.0612
     22 C           5.3854    3.1186   -2.4407 C.ar    1  UNL1       -0.0617
     23 C           4.5003    2.2570   -3.0917 C.ar    1  UNL1       -0.0612
     24 C           3.7095    1.3732   -2.3512 C.ar    1  UNL1       -0.0546
     25 H          -4.2596    3.1169   -2.3267 H       1  UNL1        0.0391
     26 H          -5.3888    2.0224   -1.4264 H       1  UNL1        0.0391
     27 H          -4.2151    3.0832   -0.5430 H       1  UNL1        0.0391
     28 H          -3.4622    1.2861   -3.6144 H       1  UNL1        0.0391
     29 H          -2.6555   -0.1001   -2.8486 H       1  UNL1        0.0391
     30 H          -4.4601    0.0526   -2.7458 H       1  UNL1        0.0391
     31 H          -3.5824    1.1483    0.6129 H       1  UNL1        0.0427
     32 H          -4.3967   -0.1044   -0.3539 H       1  UNL1        0.0427
     33 H          -1.3808    0.0117   -0.7290 H       1  UNL1        0.0286
     34 H          -1.8851   -0.2561    0.9683 H       1  UNL1        0.0286
     35 H          -3.2235   -2.2365    0.3445 H       1  UNL1        0.0380
     36 H          -2.9075   -1.9491   -1.3950 H       1  UNL1        0.0380
     37 H          -2.3249   -4.4168    1.6525 H       1  UNL1        0.0629
     38 H          -2.2072   -4.5357    4.1160 H       1  UNL1        0.0618
     39 H          -0.6556   -3.0601    5.3602 H       1  UNL1        0.0618
     40 H           0.7917   -1.4786    4.1514 H       1  UNL1        0.0636
     41 H           0.5431   -0.6187    0.6815 H       1  UNL1        0.1551
     42 H           4.1405    0.2375    1.5114 H       1  UNL1        0.0670
     43 H           2.0784   -0.0053   -0.7309 H       1  UNL1        0.0625
     44 H           4.7604    2.2557    0.7771 H       1  UNL1        0.0623
     45 H           6.1535    3.7805   -0.5435 H       1  UNL1        0.0618
     46 H           5.9955    3.8035   -3.0154 H       1  UNL1        0.0618
     47 H           4.4255    2.2744   -4.1714 H       1  UNL1        0.0618
     48 H           3.0286    0.7129   -2.8747 H       1  UNL1        0.0623
@<TRIPOS>BOND
     1     1     2    1
     2     2     3    1
     3     2     4    1
     4     4     5    1
     5     5     6    1
     6     6     7    1
     7     7     8    1
     8     8     9   ar
     9     9    10   ar
    10    10    11   ar
    11    11    12   ar
    12    12    13   ar
    13    13    14    1
    14    14    15   am
    15    15    16    2
    16    15    17    1
    17    17    18    2
    18    18    19    1
    19    19    20   ar
    20    20    21   ar
    21    21    22   ar
    22    22    23   ar
    23    23    24   ar
    24    13     8   ar
    25    24    19   ar
    26     1    25    1
    27     1    26    1
    28     1    27    1
    29     3    28    1
    30     3    29    1
    31     3    30    1
    32     4    31    1
    33     4    32    1
    34     5    33    1
    35     5    34    1
    36     6    35    1
    37     6    36    1
    38     9    37    1
    39    10    38    1
    40    11    39    1
    41    12    40    1
    42    14    41    1
    43    17    42    1
    44    18    43    1
    45    20    44    1
    46    21    45    1
    47    22    46    1
    48    23    47    1
    49    24    48    1
