@<TRIPOS>MOLECULE
Petunidin 3-O-arabinoside
 53 56 0 0 0
SMALL
GASTEIGER

@<TRIPOS>ATOM
      1 C          -4.9865   -0.9911   -0.6503 C.3     1  UNL1        0.1070
      2 O          -6.1527   -1.2445   -1.3909 O.3     1  UNL1       -0.3869
      3 C          -4.1466    0.1103   -1.3491 C.3     1  UNL1        0.0802
      4 O          -2.7503   -0.1493   -1.3319 O.3     1  UNL1       -0.3369
      5 C          -2.3374   -0.5388   -0.0351 C.3     1  UNL1        0.2309
      6 O          -0.9126   -0.5009    0.0407 O.3     1  UNL1       -0.4515
      7 C          -0.1212    0.6515   -0.1005 C.ar    1  UNL1        0.2288
      8 C          -0.6830    1.9317   -0.2375 C.ar    1  UNL1        0.0093
      9 C           0.1491    3.0537   -0.3230 C.ar    1  UNL1        0.1241
     10 C          -0.3664    4.3576   -0.4548 C.ar    1  UNL1        0.1366
     11 O          -1.7440    4.5717   -0.5133 O.3     1  UNL1       -0.5057
     12 C           0.5148    5.4467   -0.5273 C.ar    1  UNL1        0.0225
     13 C           1.9004    5.2444   -0.4683 C.ar    1  UNL1        0.1293
     14 O           2.7783    6.3238   -0.5391 O.3     1  UNL1       -0.5063
     15 C           2.4106    3.9495   -0.3373 C.ar    1  UNL1        0.0847
     16 C           1.5443    2.8544   -0.2654 C.ar    1  UNL1        0.3708
     17 O           2.0429    1.6292   -0.1449 O.2     1  UNL1       -0.1997
     18 C           1.2845    0.5369   -0.0747 C.ar    1  UNL1        0.4047
     19 C           1.9596   -0.7756    0.0469 C.ar    1  UNL1        0.0899
     20 C           1.5375   -1.8839   -0.7043 C.ar    1  UNL1       -0.0000
     21 C           2.1911   -3.1129   -0.5881 C.ar    1  UNL1        0.1628
     22 O           1.7340   -4.1929   -1.3432 O.3     1  UNL1       -0.5032
     23 C           3.2919   -3.2451    0.2750 C.ar    1  UNL1        0.2008
     24 O           3.9322   -4.4808    0.3835 O.3     1  UNL1       -0.5009
     25 C           3.7423   -2.1370    1.0167 C.ar    1  UNL1        0.1658
     26 O           4.8507   -2.2955    1.8643 O.3     1  UNL1       -0.4913
     27 C           5.4093   -1.2609    2.6677 C.3     1  UNL1        0.0790
     28 C           3.0731   -0.9040    0.8901 C.ar    1  UNL1        0.0002
     29 C          -2.8436   -1.9700    0.2756 C.3     1  UNL1        0.1454
     30 O          -1.8571   -2.9191   -0.0463 O.3     1  UNL1       -0.3829
     31 C          -4.1594   -2.2784   -0.4873 C.3     1  UNL1        0.1148
     32 O          -3.8820   -2.8098   -1.7607 O.3     1  UNL1       -0.3864
     33 H          -5.2666   -0.6207    0.3646 H       1  UNL1        0.0643
     34 H          -6.7667   -1.7480   -0.7946 H       1  UNL1        0.2100
     35 H          -4.4560    0.1895   -2.4133 H       1  UNL1        0.0588
     36 H          -4.3518    1.1001   -0.8840 H       1  UNL1        0.0588
     37 H          -2.7416    0.1592    0.7374 H       1  UNL1        0.1084
     38 H          -1.7565    2.0582   -0.2627 H       1  UNL1        0.0667
     39 H          -2.1336    5.5023   -0.6081 H       1  UNL1        0.2922
     40 H           0.1224    6.4508   -0.6288 H       1  UNL1        0.0691
     41 H           2.4419    7.2749   -0.6342 H       1  UNL1        0.2921
     42 H           3.4816    3.7947   -0.2926 H       1  UNL1        0.0749
     43 H           0.7127   -1.7943   -1.4001 H       1  UNL1        0.0664
     44 H           2.1707   -5.1057   -1.2987 H       1  UNL1        0.2923
     45 H           4.7297   -4.6267    0.9906 H       1  UNL1        0.2924
     46 H           4.6542   -0.8907    3.3930 H       1  UNL1        0.0660
     47 H           5.7644   -0.4278    2.0250 H       1  UNL1        0.0660
     48 H           6.2736   -1.6671    3.2318 H       1  UNL1        0.0660
     49 H           3.4040   -0.0428    1.4555 H       1  UNL1        0.0664
     50 H          -3.0478   -2.0167    1.3716 H       1  UNL1        0.0683
     51 H          -2.1087   -3.7611    0.4160 H       1  UNL1        0.2102
     52 H          -4.7587   -3.0089    0.1070 H       1  UNL1        0.0648
     53 H          -3.7710   -3.7901   -1.6494 H       1  UNL1        0.2100
@<TRIPOS>UNITY_ATOM_ATTR
17 1
charge 1
@<TRIPOS>BOND
     1     1     2    1
     2     1     3    1
     3     3     4    1
     4     4     5    1
     5     5     6    1
     6     6     7    1
     7     7     8   ar
     8     8     9   ar
     9     9    10   ar
    10    10    11    1
    11    10    12   ar
    12    12    13   ar
    13    13    14    1
    14    13    15   ar
    15    15    16   ar
    16    16    17   ar
    17    17    18   ar
    18    18    19    1
    19    19    20   ar
    20    20    21   ar
    21    21    22    1
    22    21    23   ar
    23    23    24    1
    24    23    25   ar
    25    25    26    1
    26    26    27    1
    27    25    28   ar
    28     5    29    1
    29    29    30    1
    30    29    31    1
    31    31    32    1
    32    31     1    1
    33    18     7   ar
    34    28    19   ar
    35    16     9   ar
    36     1    33    1
    37     2    34    1
    38     3    35    1
    39     3    36    1
    40     5    37    1
    41     8    38    1
    42    11    39    1
    43    12    40    1
    44    14    41    1
    45    15    42    1
    46    20    43    1
    47    22    44    1
    48    24    45    1
    49    27    46    1
    50    27    47    1
    51    27    48    1
    52    28    49    1
    53    29    50    1
    54    30    51    1
    55    31    52    1
    56    32    53    1
