@<TRIPOS>MOLECULE
Malvidin 3-O-glucoside
 60 63 0 0 0
SMALL
GASTEIGER

@<TRIPOS>ATOM
      1 C           2.2230   -0.6237   -6.1481 C.3     1  UNL1        0.0790
      2 O           2.8842   -1.4399   -5.1866 O.3     1  UNL1       -0.4913
      3 C           2.7213   -1.3237   -3.7969 C.ar    1  UNL1        0.1658
      4 C           1.8663   -0.3658   -3.2218 C.ar    1  UNL1        0.0002
      5 C           1.7171   -0.2852   -1.8307 C.ar    1  UNL1        0.0899
      6 C           2.4614   -1.1460   -1.0085 C.ar    1  UNL1        0.0002
      7 C           3.3159   -2.1132   -1.5682 C.ar    1  UNL1        0.1658
      8 O           4.0551   -3.0001   -0.7684 O.3     1  UNL1       -0.4913
      9 C           4.0064   -3.0380    0.6545 C.3     1  UNL1        0.0790
     10 C           3.4388   -2.1968   -2.9670 C.ar    1  UNL1        0.2011
     11 O           4.2780   -3.1459   -3.5529 O.3     1  UNL1       -0.5009
     12 C           0.8224    0.7425   -1.2507 C.ar    1  UNL1        0.4047
     13 O           0.8470    1.9636   -1.7761 O.2     1  UNL1       -0.1997
     14 C           0.1056    2.9675   -1.3237 C.ar    1  UNL1        0.3708
     15 C           0.2040    4.2168   -1.9418 C.ar    1  UNL1        0.0847
     16 C          -0.5572    5.2922   -1.4837 C.ar    1  UNL1        0.1293
     17 O          -0.4452    6.5301   -2.1129 O.3     1  UNL1       -0.5063
     18 C          -1.4238    5.1196   -0.3988 C.ar    1  UNL1        0.0225
     19 C          -1.5411    3.8775    0.2372 C.ar    1  UNL1        0.1366
     20 O          -2.4285    3.7895    1.3142 O.3     1  UNL1       -0.5057
     21 C          -0.7693    2.7801   -0.2284 C.ar    1  UNL1        0.1241
     22 C          -0.8312    1.4969    0.3386 C.ar    1  UNL1        0.0093
     23 C          -0.0447    0.4533   -0.1788 C.ar    1  UNL1        0.2288
     24 O          -0.1113   -0.8670    0.3098 O.3     1  UNL1       -0.4515
     25 C          -0.8502   -1.3402    1.4398 C.3     1  UNL1        0.2312
     26 O          -2.2158   -0.9943    1.3103 O.3     1  UNL1       -0.3313
     27 C          -3.0116   -1.7302    2.2299 C.3     1  UNL1        0.1140
     28 C          -4.4400   -1.1684    2.1895 C.3     1  UNL1        0.0731
     29 O          -4.9752   -1.2794    0.8977 O.3     1  UNL1       -0.3924
     30 C          -2.4459   -1.6952    3.6904 C.3     1  UNL1        0.1120
     31 O          -1.8997   -2.9465    4.0232 O.3     1  UNL1       -0.3865
     32 C          -1.3549   -0.6207    3.8375 C.3     1  UNL1        0.1152
     33 O          -1.9474    0.6486    3.7219 O.3     1  UNL1       -0.3864
     34 C          -0.2533   -0.7958    2.7608 C.3     1  UNL1        0.1454
     35 O           0.7309   -1.6892    3.2171 O.3     1  UNL1       -0.3829
     36 H           1.1228   -0.7493   -6.0637 H       1  UNL1        0.0660
     37 H           2.4996    0.4415   -5.9998 H       1  UNL1        0.0660
     38 H           2.5385   -0.9340   -7.1652 H       1  UNL1        0.0660
     39 H           1.3033    0.3116   -3.8504 H       1  UNL1        0.0664
     40 H           2.3890   -1.0449    0.0655 H       1  UNL1        0.0664
     41 H           4.3562   -2.0714    1.0747 H       1  UNL1        0.0660
     42 H           2.9713   -3.2518    0.9962 H       1  UNL1        0.0660
     43 H           4.6744   -3.8451    1.0185 H       1  UNL1        0.0660
     44 H           4.8207   -3.8017   -3.0040 H       1  UNL1        0.2924
     45 H           0.8758    4.3525   -2.7805 H       1  UNL1        0.0749
     46 H          -0.9835    7.3316   -1.8051 H       1  UNL1        0.2921
     47 H          -2.0125    5.9569   -0.0448 H       1  UNL1        0.0691
     48 H          -2.5935    2.9531    1.8548 H       1  UNL1        0.2922
     49 H          -1.4842    1.2990    1.1655 H       1  UNL1        0.0667
     50 H          -0.7474   -2.4513    1.4283 H       1  UNL1        0.1084
     51 H          -3.0765   -2.7870    1.8810 H       1  UNL1        0.0647
     52 H          -5.0858   -1.7501    2.8819 H       1  UNL1        0.0584
     53 H          -4.4481   -0.1059    2.5265 H       1  UNL1        0.0584
     54 H          -4.6406   -0.5007    0.3806 H       1  UNL1        0.2095
     55 H          -3.2504   -1.4551    4.4262 H       1  UNL1        0.0647
     56 H          -2.6647   -3.5579    4.1874 H       1  UNL1        0.2100
     57 H          -0.9064   -0.7160    4.8549 H       1  UNL1        0.0648
     58 H          -1.3028    1.3035    4.0983 H       1  UNL1        0.2100
     59 H           0.2233    0.1939    2.5730 H       1  UNL1        0.0683
     60 H           1.2902   -1.1943    3.8716 H       1  UNL1        0.2102
@<TRIPOS>UNITY_ATOM_ATTR
13 1
charge 1
@<TRIPOS>BOND
     1     1     2    1
     2     2     3    1
     3     3     4   ar
     4     4     5   ar
     5     5     6   ar
     6     6     7   ar
     7     7     8    1
     8     8     9    1
     9     7    10   ar
    10    10    11    1
    11     5    12    1
    12    12    13   ar
    13    13    14   ar
    14    14    15   ar
    15    15    16   ar
    16    16    17    1
    17    16    18   ar
    18    18    19   ar
    19    19    20    1
    20    19    21   ar
    21    21    22   ar
    22    22    23   ar
    23    23    24    1
    24    24    25    1
    25    25    26    1
    26    26    27    1
    27    27    28    1
    28    28    29    1
    29    27    30    1
    30    30    31    1
    31    30    32    1
    32    32    33    1
    33    32    34    1
    34    34    35    1
    35    10     3   ar
    36    23    12   ar
    37    34    25    1
    38    21    14   ar
    39     1    36    1
    40     1    37    1
    41     1    38    1
    42     4    39    1
    43     6    40    1
    44     9    41    1
    45     9    42    1
    46     9    43    1
    47    11    44    1
    48    15    45    1
    49    17    46    1
    50    18    47    1
    51    20    48    1
    52    22    49    1
    53    25    50    1
    54    27    51    1
    55    28    52    1
    56    28    53    1
    57    29    54    1
    58    30    55    1
    59    31    56    1
    60    32    57    1
    61    33    58    1
    62    34    59    1
    63    35    60    1
