@<TRIPOS>MOLECULE
Cyanidin 3-O-galactoside
 53 56 0 0 0
SMALL
GASTEIGER

@<TRIPOS>ATOM
      1 O           2.5423   -1.1831    3.4318 O.3     1  UNL1       -0.3924
      2 C           3.3379   -0.1182    2.9897 C.3     1  UNL1        0.0731
      3 C           3.2212    0.0118    1.4676 C.3     1  UNL1        0.1140
      4 O           1.8755    0.3060    1.1316 O.3     1  UNL1       -0.3313
      5 C           1.6911    0.2289   -0.2723 C.3     1  UNL1        0.2312
      6 O           0.3110    0.4258   -0.5719 O.3     1  UNL1       -0.4515
      7 C          -0.7329   -0.4398   -0.2017 C.ar    1  UNL1        0.2288
      8 C          -0.5079   -1.6038    0.5526 C.ar    1  UNL1        0.0093
      9 C          -1.5880   -2.4076    0.9520 C.ar    1  UNL1        0.1241
     10 C          -1.4379   -3.5880    1.7268 C.ar    1  UNL1        0.1366
     11 O          -0.1987   -4.0670    2.1625 O.3     1  UNL1       -0.5057
     12 C          -2.5739   -4.3244    2.0851 C.ar    1  UNL1        0.0225
     13 C          -3.8515   -3.9110    1.6919 C.ar    1  UNL1        0.1293
     14 O          -4.9781   -4.6471    2.0521 O.3     1  UNL1       -0.5063
     15 C          -4.0024   -2.7511    0.9317 C.ar    1  UNL1        0.0847
     16 C          -2.8846   -1.9997    0.5599 C.ar    1  UNL1        0.3708
     17 O          -3.0576   -0.9019   -0.1670 O.2     1  UNL1       -0.1997
     18 C          -2.0555   -0.1260   -0.5694 C.ar    1  UNL1        0.4046
     19 C          -2.3794    1.0659   -1.3865 C.ar    1  UNL1        0.0865
     20 C          -1.6126    1.4111   -2.5146 C.ar    1  UNL1       -0.0003
     21 C          -1.9437    2.5367   -3.2824 C.ar    1  UNL1        0.1591
     22 O          -1.1758    2.8835   -4.3927 O.3     1  UNL1       -0.5033
     23 C          -3.0545    3.3159   -2.9362 C.ar    1  UNL1        0.1583
     24 O          -3.3789    4.4357   -3.6999 O.3     1  UNL1       -0.5033
     25 C          -3.8348    2.9627   -1.8276 C.ar    1  UNL1       -0.0157
     26 C          -3.5038    1.8413   -1.0623 C.ar    1  UNL1       -0.0418
     27 C           2.5105    1.3286   -0.9785 C.3     1  UNL1        0.1454
     28 O           2.3325    1.2688   -2.3722 O.3     1  UNL1       -0.3829
     29 C           4.0033    1.2022   -0.6041 C.3     1  UNL1        0.1152
     30 O           4.7245    2.3041   -1.0922 O.3     1  UNL1       -0.3864
     31 C           4.1594    1.1141    0.9261 C.3     1  UNL1        0.1120
     32 O           3.8346    2.3477    1.5198 O.3     1  UNL1       -0.3865
     33 H           2.6538   -1.2199    4.4173 H       1  UNL1        0.2095
     34 H           3.0021    0.8241    3.4782 H       1  UNL1        0.0584
     35 H           4.3991   -0.3093    3.2669 H       1  UNL1        0.0584
     36 H           3.5282   -0.9720    1.0383 H       1  UNL1        0.0647
     37 H           1.9958   -0.7708   -0.6628 H       1  UNL1        0.1084
     38 H           0.5002   -1.8590    0.8268 H       1  UNL1        0.0667
     39 H           0.6873   -3.6233    1.9695 H       1  UNL1        0.2922
     40 H          -2.4603   -5.2251    2.6758 H       1  UNL1        0.0691
     41 H          -4.9036   -5.4941    2.6036 H       1  UNL1        0.2921
     42 H          -4.9921   -2.4328    0.6278 H       1  UNL1        0.0749
     43 H          -0.7724    0.7978   -2.8148 H       1  UNL1        0.0664
     44 H          -0.3653    2.3406   -4.6673 H       1  UNL1        0.2923
     45 H          -4.1774    5.0176   -3.4747 H       1  UNL1        0.2923
     46 H          -4.6986    3.5569   -1.5580 H       1  UNL1        0.0655
     47 H          -4.1182    1.5863   -0.2073 H       1  UNL1        0.0628
     48 H           2.1389    2.3176   -0.6295 H       1  UNL1        0.0683
     49 H           2.6527    0.3804   -2.6794 H       1  UNL1        0.2102
     50 H           4.4160    0.2620   -1.0425 H       1  UNL1        0.0648
     51 H           4.8586    2.1526   -2.0642 H       1  UNL1        0.2100
     52 H           5.2134    0.8363    1.1661 H       1  UNL1        0.0647
     53 H           4.6504    2.9119    1.4804 H       1  UNL1        0.2100
@<TRIPOS>UNITY_ATOM_ATTR
17 1
charge 1
@<TRIPOS>BOND
     1     1     2    1
     2     2     3    1
     3     3     4    1
     4     4     5    1
     5     5     6    1
     6     6     7    1
     7     7     8   ar
     8     8     9   ar
     9     9    10   ar
    10    10    11    1
    11    10    12   ar
    12    12    13   ar
    13    13    14    1
    14    13    15   ar
    15    15    16   ar
    16    16    17   ar
    17    17    18   ar
    18    18    19    1
    19    19    20   ar
    20    20    21   ar
    21    21    22    1
    22    21    23   ar
    23    23    24    1
    24    23    25   ar
    25    25    26   ar
    26     5    27    1
    27    27    28    1
    28    27    29    1
    29    29    30    1
    30    29    31    1
    31    31    32    1
    32    31     3    1
    33    18     7   ar
    34    26    19   ar
    35    16     9   ar
    36     1    33    1
    37     2    34    1
    38     2    35    1
    39     3    36    1
    40     5    37    1
    41     8    38    1
    42    11    39    1
    43    12    40    1
    44    14    41    1
    45    15    42    1
    46    20    43    1
    47    22    44    1
    48    24    45    1
    49    25    46    1
    50    26    47    1
    51    27    48    1
    52    28    49    1
    53    29    50    1
    54    30    51    1
    55    31    52    1
    56    32    53    1
