@<TRIPOS>MOLECULE
Malvidin 3-O-arabinoside
 56 59 0 0 0
SMALL
GASTEIGER

@<TRIPOS>ATOM
      1 C           5.5737   -0.2051   -2.9426 C.3     1  UNL1        0.0790
      2 O           5.3650   -1.0596   -1.8228 O.3     1  UNL1       -0.4913
      3 C           4.2381   -1.0148   -0.9864 C.ar    1  UNL1        0.1658
      4 C           3.1907   -0.0979   -1.1914 C.ar    1  UNL1        0.0002
      5 C           2.0739   -0.0880   -0.3447 C.ar    1  UNL1        0.0899
      6 C           2.0264   -0.9783    0.7395 C.ar    1  UNL1        0.0002
      7 C           3.0615   -1.9063    0.9538 C.ar    1  UNL1        0.1658
      8 O           3.0254   -2.8230    2.0171 O.3     1  UNL1       -0.4913
      9 C           1.9563   -2.9352    2.9517 C.3     1  UNL1        0.0790
     10 C           4.1660   -1.9188    0.0830 C.ar    1  UNL1        0.2011
     11 O           5.2096   -2.8270    0.2689 O.3     1  UNL1       -0.5009
     12 C           0.9914    0.8962   -0.5759 C.ar    1  UNL1        0.4047
     13 O           1.3337    2.1406   -0.8949 O.2     1  UNL1       -0.1997
     14 C           0.4503    3.1084   -1.1085 C.ar    1  UNL1        0.3708
     15 C           0.9096    4.3865   -1.4369 C.ar    1  UNL1        0.0847
     16 C           0.0023    5.4250   -1.6649 C.ar    1  UNL1        0.1293
     17 O           0.4529    6.7015   -1.9943 O.3     1  UNL1       -0.5063
     18 C          -1.3692    5.1846   -1.5612 C.ar    1  UNL1        0.0225
     19 C          -1.8547    3.9132   -1.2310 C.ar    1  UNL1        0.1366
     20 O          -3.2413    3.7600   -1.1382 O.3     1  UNL1       -0.5057
     21 C          -0.9372    2.8532   -1.0048 C.ar    1  UNL1        0.1241
     22 C          -1.3333    1.5426   -0.6910 C.ar    1  UNL1        0.0093
     23 C          -0.3689    0.5430   -0.4789 C.ar    1  UNL1        0.2288
     24 O          -0.7148   -0.7943   -0.2091 O.3     1  UNL1       -0.4515
     25 C          -2.0244   -1.2880    0.0821 C.3     1  UNL1        0.2309
     26 O          -1.9771   -2.7022    0.0625 O.3     1  UNL1       -0.3369
     27 C          -3.2895   -3.2460    0.0300 C.3     1  UNL1        0.0802
     28 C          -4.2425   -2.6283    1.0864 C.3     1  UNL1        0.1070
     29 O          -5.1488   -1.7667    0.4425 O.3     1  UNL1       -0.3869
     30 C          -3.4242   -1.8561    2.1401 C.3     1  UNL1        0.1148
     31 O          -4.2536   -1.2832    3.1213 O.3     1  UNL1       -0.3864
     32 C          -2.5070   -0.7974    1.4752 C.3     1  UNL1        0.1454
     33 O          -1.4050   -0.5467    2.3104 O.3     1  UNL1       -0.3829
     34 H           5.6073    0.8549   -2.6133 H       1  UNL1        0.0660
     35 H           4.7641   -0.3490   -3.6890 H       1  UNL1        0.0660
     36 H           6.5433   -0.4602   -3.4172 H       1  UNL1        0.0660
     37 H           3.2309    0.6019   -2.0158 H       1  UNL1        0.0664
     38 H           1.1939   -0.9307    1.4263 H       1  UNL1        0.0664
     39 H           1.8445   -1.9877    3.5200 H       1  UNL1        0.0660
     40 H           2.1839   -3.7524    3.6663 H       1  UNL1        0.0660
     41 H           1.0099   -3.1782    2.4231 H       1  UNL1        0.0660
     42 H           5.2120   -3.5021    1.0240 H       1  UNL1        0.2924
     43 H           1.9740    4.5714   -1.5150 H       1  UNL1        0.0749
     44 H           1.4412    6.9095   -2.0772 H       1  UNL1        0.2921
     45 H          -2.0664    5.9947   -1.7362 H       1  UNL1        0.0691
     46 H          -3.7069    2.9022   -0.8808 H       1  UNL1        0.2922
     47 H          -2.3741    1.2844   -0.6337 H       1  UNL1        0.0667
     48 H          -2.7176   -0.9309   -0.7157 H       1  UNL1        0.1084
     49 H          -3.7132   -3.1487   -0.9946 H       1  UNL1        0.0588
     50 H          -3.2035   -4.3357    0.2282 H       1  UNL1        0.0588
     51 H          -4.7957   -3.4565    1.5913 H       1  UNL1        0.0643
     52 H          -5.9900   -1.7795    0.9697 H       1  UNL1        0.2100
     53 H          -2.7753   -2.6008    2.6542 H       1  UNL1        0.0648
     54 H          -4.7873   -0.5655    2.6916 H       1  UNL1        0.2100
     55 H          -3.0760    0.1480    1.3197 H       1  UNL1        0.0683
     56 H          -1.7341    0.0189    3.0570 H       1  UNL1        0.2102
@<TRIPOS>UNITY_ATOM_ATTR
13 1
charge 1
@<TRIPOS>BOND
     1     1     2    1
     2     2     3    1
     3     3     4   ar
     4     4     5   ar
     5     5     6   ar
     6     6     7   ar
     7     7     8    1
     8     8     9    1
     9     7    10   ar
    10    10    11    1
    11     5    12    1
    12    12    13   ar
    13    13    14   ar
    14    14    15   ar
    15    15    16   ar
    16    16    17    1
    17    16    18   ar
    18    18    19   ar
    19    19    20    1
    20    19    21   ar
    21    21    22   ar
    22    22    23   ar
    23    23    24    1
    24    24    25    1
    25    25    26    1
    26    26    27    1
    27    27    28    1
    28    28    29    1
    29    28    30    1
    30    30    31    1
    31    30    32    1
    32    32    33    1
    33    10     3   ar
    34    23    12   ar
    35    32    25    1
    36    21    14   ar
    37     1    34    1
    38     1    35    1
    39     1    36    1
    40     4    37    1
    41     6    38    1
    42     9    39    1
    43     9    40    1
    44     9    41    1
    45    11    42    1
    46    15    43    1
    47    17    44    1
    48    18    45    1
    49    20    46    1
    50    22    47    1
    51    25    48    1
    52    27    49    1
    53    27    50    1
    54    28    51    1
    55    29    52    1
    56    30    53    1
    57    31    54    1
    58    32    55    1
    59    33    56    1
