@<TRIPOS>MOLECULE
Delphinidin 3-O-(6''-acetyl-glucoside)
 59 62 0 0 0
SMALL
GASTEIGER

@<TRIPOS>ATOM
      1 C           3.1903   -0.1791   -0.4094 C.3     1  UNL1        0.1250
      2 C           4.1336   -1.3607   -0.6569 C.3     1  UNL1        0.1212
      3 O           5.4447   -0.8861   -0.9509 O.3     1  UNL1       -0.4621
      4 C           6.5160   -1.7443   -1.2121 C.2     1  UNL1        0.3040
      5 C           7.8651   -1.1726   -1.4863 C.3     1  UNL1        0.0332
      6 O           6.3630   -2.9956   -1.1767 O.2     1  UNL1       -0.2512
      7 O           1.8696   -0.6881   -0.2951 O.3     1  UNL1       -0.3302
      8 C           0.9616    0.3500    0.0170 C.3     1  UNL1        0.2313
      9 O          -0.3609   -0.1576   -0.1728 O.3     1  UNL1       -0.4515
     10 C          -1.5532    0.5891   -0.1680 C.ar    1  UNL1        0.2288
     11 C          -2.7851   -0.0831   -0.0468 C.ar    1  UNL1        0.4047
     12 O          -3.9240    0.6002   -0.1092 O.2     1  UNL1       -0.1997
     13 C          -3.9769    1.9184   -0.2572 C.ar    1  UNL1        0.3708
     14 C          -5.2240    2.5465   -0.3093 C.ar    1  UNL1        0.0847
     15 C          -5.3109    3.9300   -0.4642 C.ar    1  UNL1        0.1293
     16 O          -6.5634    4.5378   -0.5165 O.3     1  UNL1       -0.5063
     17 C          -4.1429    4.6941   -0.5641 C.ar    1  UNL1        0.0225
     18 C          -2.8812    4.0888   -0.5105 C.ar    1  UNL1        0.1366
     19 O          -1.7640    4.9243   -0.6031 O.3     1  UNL1       -0.5057
     20 C          -2.7894    2.6796   -0.3614 C.ar    1  UNL1        0.1241
     21 C          -1.5692    1.9849   -0.3253 C.ar    1  UNL1        0.0093
     22 C          -2.8616   -1.5502    0.1379 C.ar    1  UNL1        0.0899
     23 C          -2.0196   -2.2171    1.0444 C.ar    1  UNL1       -0.0000
     24 C          -2.1180   -3.6039    1.2182 C.ar    1  UNL1        0.1628
     25 O          -1.2738   -4.2626    2.1107 O.3     1  UNL1       -0.5032
     26 C          -3.0706   -4.3352    0.4972 C.ar    1  UNL1        0.2006
     27 O          -3.1514   -5.7159    0.6806 O.3     1  UNL1       -0.5009
     28 C          -3.9321   -3.6734   -0.3941 C.ar    1  UNL1        0.1628
     29 O          -4.8875   -4.3959   -1.1073 O.3     1  UNL1       -0.5032
     30 C          -3.8288   -2.2857   -0.5638 C.ar    1  UNL1       -0.0000
     31 C           1.1570    0.7764    1.4971 C.3     1  UNL1        0.1454
     32 O           0.8057    2.1241    1.6903 O.3     1  UNL1       -0.3829
     33 C           2.6026    0.5037    1.9931 C.3     1  UNL1        0.1152
     34 O           2.6876   -0.7967    2.5215 O.3     1  UNL1       -0.3864
     35 C           3.6286    0.6382    0.8519 C.3     1  UNL1        0.1130
     36 O           3.7751    1.9946    0.5173 O.3     1  UNL1       -0.3864
     37 H           3.2491    0.4649   -1.3181 H       1  UNL1        0.0658
     38 H           3.7587   -1.9547   -1.5193 H       1  UNL1        0.0724
     39 H           4.1605   -2.0169    0.2410 H       1  UNL1        0.0724
     40 H           8.3895   -1.7829   -2.2516 H       1  UNL1        0.0342
     41 H           7.7670   -0.1328   -1.8627 H       1  UNL1        0.0342
     42 H           8.4611   -1.1662   -0.5502 H       1  UNL1        0.0342
     43 H           1.1230    1.2044   -0.6797 H       1  UNL1        0.1084
     44 H          -6.1290    1.9568   -0.2302 H       1  UNL1        0.0749
     45 H          -6.6618    5.5402   -0.6279 H       1  UNL1        0.2921
     46 H          -4.2138    5.7685   -0.6803 H       1  UNL1        0.0691
     47 H          -0.8069    4.6099   -0.5376 H       1  UNL1        0.2922
     48 H          -0.6399    2.5072   -0.4512 H       1  UNL1        0.0667
     49 H          -1.3021   -1.6621    1.6350 H       1  UNL1        0.0664
     50 H          -0.5738   -3.7625    2.6463 H       1  UNL1        0.2923
     51 H          -3.8240   -6.2871    0.1832 H       1  UNL1        0.2924
     52 H          -5.5208   -3.9431   -1.7559 H       1  UNL1        0.2923
     53 H          -4.4956   -1.7829   -1.2543 H       1  UNL1        0.0664
     54 H           0.4658    0.1740    2.1270 H       1  UNL1        0.0683
     55 H           1.4118    2.6796    1.1357 H       1  UNL1        0.2102
     56 H           2.8689    1.2363    2.7922 H       1  UNL1        0.0648
     57 H           2.2813   -0.7681    3.4271 H       1  UNL1        0.2100
     58 H           4.6055    0.2699    1.2475 H       1  UNL1        0.0647
     59 H           4.6134    2.0706   -0.0096 H       1  UNL1        0.2100
@<TRIPOS>UNITY_ATOM_ATTR
12 1
charge 1
@<TRIPOS>BOND
     1     1     2    1
     2     2     3    1
     3     3     4    1
     4     4     5    1
     5     4     6    2
     6     1     7    1
     7     7     8    1
     8     8     9    1
     9     9    10    1
    10    10    11   ar
    11    11    12   ar
    12    12    13   ar
    13    13    14   ar
    14    14    15   ar
    15    15    16    1
    16    15    17   ar
    17    17    18   ar
    18    18    19    1
    19    18    20   ar
    20    20    21   ar
    21    11    22    1
    22    22    23   ar
    23    23    24   ar
    24    24    25    1
    25    24    26   ar
    26    26    27    1
    27    26    28   ar
    28    28    29    1
    29    28    30   ar
    30     8    31    1
    31    31    32    1
    32    31    33    1
    33    33    34    1
    34    33    35    1
    35    35    36    1
    36    35     1    1
    37    21    10   ar
    38    30    22   ar
    39    20    13   ar
    40     1    37    1
    41     2    38    1
    42     2    39    1
    43     5    40    1
    44     5    41    1
    45     5    42    1
    46     8    43    1
    47    14    44    1
    48    16    45    1
    49    17    46    1
    50    19    47    1
    51    21    48    1
    52    23    49    1
    53    25    50    1
    54    27    51    1
    55    29    52    1
    56    30    53    1
    57    31    54    1
    58    32    55    1
    59    33    56    1
    60    34    57    1
    61    35    58    1
    62    36    59    1
