@<TRIPOS>MOLECULE
Petunidin 3-O-(6''-acetyl-galactoside)
 62 65 0 0 0
SMALL
GASTEIGER

@<TRIPOS>ATOM
      1 C           2.9078    0.4316   -2.1796 C.3     1  UNL1        0.1250
      2 C           3.9397   -0.2668   -1.2790 C.3     1  UNL1        0.1212
      3 O           3.7421    0.0811    0.0873 O.3     1  UNL1       -0.4621
      4 C           4.5218   -0.4404    1.1218 C.2     1  UNL1        0.3040
      5 C           4.2192   -0.0567    2.5299 C.3     1  UNL1        0.0332
      6 O           5.4965   -1.2013    0.8746 O.2     1  UNL1       -0.2512
      7 O           1.5792    0.0225   -1.8521 O.3     1  UNL1       -0.3302
      8 C           0.8908    0.9708   -1.0555 C.3     1  UNL1        0.2313
      9 O          -0.3685    0.4318   -0.6534 O.3     1  UNL1       -0.4515
     10 C          -0.5625   -0.6433    0.2296 C.ar    1  UNL1        0.2288
     11 C          -1.8740   -1.0060    0.6030 C.ar    1  UNL1        0.4047
     12 O          -2.0737   -2.0578    1.3949 O.2     1  UNL1       -0.1997
     13 C          -1.0850   -2.7954    1.8875 C.ar    1  UNL1        0.3708
     14 C          -1.3794   -3.8817    2.7172 C.ar    1  UNL1        0.0847
     15 C          -0.3456   -4.6662    3.2446 C.ar    1  UNL1        0.1293
     16 O          -0.6298   -5.7495    4.0732 O.3     1  UNL1       -0.5063
     17 C           0.9852   -4.3631    2.9388 C.ar    1  UNL1        0.0225
     18 C           1.2952   -3.2780    2.1060 C.ar    1  UNL1        0.1366
     19 O           2.6265   -2.9911    1.8038 O.3     1  UNL1       -0.5057
     20 C           0.2562   -2.4870    1.5788 C.ar    1  UNL1        0.1241
     21 C           0.5067   -1.3952    0.7403 C.ar    1  UNL1        0.0093
     22 C          -3.0588   -0.2561    0.1243 C.ar    1  UNL1        0.0899
     23 C          -4.2076   -0.9584   -0.2662 C.ar    1  UNL1       -0.0000
     24 C          -5.3422   -0.2735   -0.7194 C.ar    1  UNL1        0.1628
     25 O          -6.4744   -0.9834   -1.1165 O.3     1  UNL1       -0.5032
     26 C          -5.3372    1.1303   -0.7751 C.ar    1  UNL1        0.2008
     27 O          -6.4550    1.8303   -1.2310 O.3     1  UNL1       -0.5009
     28 C          -4.2031    1.8471   -0.3680 C.ar    1  UNL1        0.1658
     29 O          -4.2382    3.2491   -0.4360 O.3     1  UNL1       -0.4913
     30 C          -3.1511    4.1011   -0.0886 C.3     1  UNL1        0.0790
     31 C          -3.0716    1.1491    0.0944 C.ar    1  UNL1        0.0002
     32 C           0.6466    2.2833   -1.8469 C.3     1  UNL1        0.1454
     33 O          -0.5626    2.2356   -2.5650 O.3     1  UNL1       -0.3829
     34 C           1.8207    2.6120   -2.8027 C.3     1  UNL1        0.1152
     35 O           1.9860    4.0015   -2.9199 O.3     1  UNL1       -0.3864
     36 C           3.1206    1.9723   -2.2979 C.3     1  UNL1        0.1130
     37 O           3.4872    2.5308   -1.0593 O.3     1  UNL1       -0.3864
     38 H           3.0943    0.0316   -3.2010 H       1  UNL1        0.0658
     39 H           4.9662    0.0226   -1.5941 H       1  UNL1        0.0724
     40 H           3.8334   -1.3678   -1.3950 H       1  UNL1        0.0724
     41 H           4.8043    0.8462    2.8012 H       1  UNL1        0.0342
     42 H           4.4827   -0.8871    3.2185 H       1  UNL1        0.0342
     43 H           3.1360    0.1639    2.6348 H       1  UNL1        0.0342
     44 H           1.4708    1.2062   -0.1350 H       1  UNL1        0.1084
     45 H          -2.4105   -4.1149    2.9521 H       1  UNL1        0.0749
     46 H          -1.5826   -5.9963    4.3142 H       1  UNL1        0.2921
     47 H           1.7795   -4.9745    3.3485 H       1  UNL1        0.0691
     48 H           3.3882   -3.5462    2.1756 H       1  UNL1        0.2922
     49 H           1.5219   -1.1462    0.4766 H       1  UNL1        0.0667
     50 H          -4.2179   -2.0414   -0.2331 H       1  UNL1        0.0664
     51 H          -6.5043   -1.9959   -1.0868 H       1  UNL1        0.2923
     52 H          -7.2988    1.3601   -1.5359 H       1  UNL1        0.2924
     53 H          -2.2690    3.8740   -0.7241 H       1  UNL1        0.0660
     54 H          -2.8932    3.9733    0.9839 H       1  UNL1        0.0660
     55 H          -3.4489    5.1560   -0.2583 H       1  UNL1        0.0660
     56 H          -2.2098    1.6955    0.4508 H       1  UNL1        0.0664
     57 H           0.5555    3.1014   -1.0983 H       1  UNL1        0.0683
     58 H          -0.5218    1.4467   -3.1671 H       1  UNL1        0.2102
     59 H           1.6162    2.1838   -3.8130 H       1  UNL1        0.0648
     60 H           1.2209    4.3345   -3.4581 H       1  UNL1        0.2100
     61 H           3.9317    2.1562   -3.0428 H       1  UNL1        0.0647
     62 H           3.9474    3.3890   -1.2516 H       1  UNL1        0.2100
@<TRIPOS>UNITY_ATOM_ATTR
12 1
charge 1
@<TRIPOS>BOND
     1     1     2    1
     2     2     3    1
     3     3     4    1
     4     4     5    1
     5     4     6    2
     6     1     7    1
     7     7     8    1
     8     8     9    1
     9     9    10    1
    10    10    11   ar
    11    11    12   ar
    12    12    13   ar
    13    13    14   ar
    14    14    15   ar
    15    15    16    1
    16    15    17   ar
    17    17    18   ar
    18    18    19    1
    19    18    20   ar
    20    20    21   ar
    21    11    22    1
    22    22    23   ar
    23    23    24   ar
    24    24    25    1
    25    24    26   ar
    26    26    27    1
    27    26    28   ar
    28    28    29    1
    29    29    30    1
    30    28    31   ar
    31     8    32    1
    32    32    33    1
    33    32    34    1
    34    34    35    1
    35    34    36    1
    36    36    37    1
    37    36     1    1
    38    21    10   ar
    39    31    22   ar
    40    20    13   ar
    41     1    38    1
    42     2    39    1
    43     2    40    1
    44     5    41    1
    45     5    42    1
    46     5    43    1
    47     8    44    1
    48    14    45    1
    49    16    46    1
    50    17    47    1
    51    19    48    1
    52    21    49    1
    53    23    50    1
    54    25    51    1
    55    27    52    1
    56    30    53    1
    57    30    54    1
    58    30    55    1
    59    31    56    1
    60    32    57    1
    61    33    58    1
    62    34    59    1
    63    35    60    1
    64    36    61    1
    65    37    62    1
