@<TRIPOS>MOLECULE
Peonidin 3-O-(6''-acetyl-galactoside)
 61 64 0 0 0
SMALL
GASTEIGER

@<TRIPOS>ATOM
      1 C           2.7946   -1.3402   -0.2228 C.3     1  UNL1        0.1250
      2 C           4.2733   -1.1126   -0.5755 C.3     1  UNL1        0.1212
      3 O           5.0951   -1.6299    0.4671 O.3     1  UNL1       -0.4621
      4 C           6.4906   -1.5630    0.4310 C.2     1  UNL1        0.3040
      5 C           7.2820   -2.1062    1.5716 C.3     1  UNL1        0.0332
      6 O           7.0847   -1.0113   -0.5349 O.2     1  UNL1       -0.2512
      7 O           2.5161   -0.7157    1.0335 O.3     1  UNL1       -0.3302
      8 C           1.5939    0.3640    0.9952 C.3     1  UNL1        0.2313
      9 O           0.2629   -0.1639    0.9809 O.3     1  UNL1       -0.4515
     10 C          -0.9235    0.5540    1.2064 C.ar    1  UNL1        0.2288
     11 C          -2.1200    0.1006    0.6223 C.ar    1  UNL1        0.4046
     12 O          -3.2418    0.7965    0.7777 O.2     1  UNL1       -0.1997
     13 C          -3.3123    1.9133    1.4927 C.ar    1  UNL1        0.3708
     14 C          -4.5386    2.5741    1.6010 C.ar    1  UNL1        0.0847
     15 C          -4.6446    3.7461    2.3499 C.ar    1  UNL1        0.1293
     16 O          -5.8763    4.3898    2.4471 O.3     1  UNL1       -0.5063
     17 C          -3.5164    4.2643    2.9954 C.ar    1  UNL1        0.0225
     18 C          -2.2753    3.6227    2.9001 C.ar    1  UNL1        0.1366
     19 O          -1.1967    4.2087    3.5694 O.3     1  UNL1       -0.5057
     20 C          -2.1641    2.4285    2.1402 C.ar    1  UNL1        0.1241
     21 C          -0.9610    1.7192    1.9879 C.ar    1  UNL1        0.0093
     22 C          -2.1615   -1.1244   -0.2051 C.ar    1  UNL1        0.0865
     23 C          -2.8327   -1.1051   -1.4372 C.ar    1  UNL1       -0.0001
     24 C          -2.8748   -2.2553   -2.2508 C.ar    1  UNL1        0.1621
     25 O          -3.5237   -2.2611   -3.4960 O.3     1  UNL1       -0.4914
     26 C          -4.1894   -1.1386   -4.0654 C.3     1  UNL1        0.0790
     27 C          -2.2483   -3.4340   -1.8064 C.ar    1  UNL1        0.1585
     28 O          -2.2628   -4.5939   -2.5809 O.3     1  UNL1       -0.5033
     29 C          -1.5994   -3.4580   -0.5685 C.ar    1  UNL1       -0.0157
     30 C          -1.5603   -2.3154    0.2314 C.ar    1  UNL1       -0.0418
     31 C           1.8532    1.2963   -0.2108 C.3     1  UNL1        0.1454
     32 O           1.0441    2.4420   -0.1480 O.3     1  UNL1       -0.3829
     33 C           1.5815    0.5456   -1.5289 C.3     1  UNL1        0.1152
     34 O           2.3203    1.1090   -2.5857 O.3     1  UNL1       -0.3864
     35 C           1.8221   -0.9817   -1.3879 C.3     1  UNL1        0.1130
     36 O           2.2653   -1.5449   -2.5972 O.3     1  UNL1       -0.3864
     37 H           2.6840   -2.4357   -0.0635 H       1  UNL1        0.0658
     38 H           4.5284   -1.6329   -1.5238 H       1  UNL1        0.0724
     39 H           4.4820   -0.0304   -0.6937 H       1  UNL1        0.0724
     40 H           7.5346   -1.2829    2.2716 H       1  UNL1        0.0342
     41 H           6.6904   -2.8749    2.1116 H       1  UNL1        0.0342
     42 H           8.2187   -2.5715    1.1985 H       1  UNL1        0.0342
     43 H           1.7562    0.9399    1.9285 H       1  UNL1        0.1084
     44 H          -5.4131    2.1740    1.1025 H       1  UNL1        0.0749
     45 H          -5.9877    5.2427    2.9828 H       1  UNL1        0.2921
     46 H          -3.6020    5.1751    3.5752 H       1  UNL1        0.0691
     47 H          -0.2549    3.8455    3.5658 H       1  UNL1        0.2922
     48 H          -0.0589    2.0526    2.4667 H       1  UNL1        0.0667
     49 H          -3.3027   -0.1866   -1.7633 H       1  UNL1        0.0664
     50 H          -5.0223   -0.8138   -3.4065 H       1  UNL1        0.0660
     51 H          -3.4716   -0.3046   -4.2153 H       1  UNL1        0.0660
     52 H          -4.6085   -1.4275   -5.0508 H       1  UNL1        0.0660
     53 H          -2.7177   -4.6339   -3.4850 H       1  UNL1        0.2923
     54 H          -1.1256   -4.3684   -0.2240 H       1  UNL1        0.0655
     55 H          -1.0683   -2.3654    1.1946 H       1  UNL1        0.0628
     56 H           2.9225    1.6084   -0.1777 H       1  UNL1        0.0683
     57 H           1.4309    3.0297    0.5527 H       1  UNL1        0.2102
     58 H           0.5054    0.6756   -1.7843 H       1  UNL1        0.0648
     59 H           3.2811    0.9390   -2.4109 H       1  UNL1        0.2100
     60 H           0.8468   -1.4562   -1.1293 H       1  UNL1        0.0647
     61 H           1.4962   -1.5178   -3.2251 H       1  UNL1        0.2100
@<TRIPOS>UNITY_ATOM_ATTR
12 1
charge 1
@<TRIPOS>BOND
     1     1     2    1
     2     2     3    1
     3     3     4    1
     4     4     5    1
     5     4     6    2
     6     1     7    1
     7     7     8    1
     8     8     9    1
     9     9    10    1
    10    10    11   ar
    11    11    12   ar
    12    12    13   ar
    13    13    14   ar
    14    14    15   ar
    15    15    16    1
    16    15    17   ar
    17    17    18   ar
    18    18    19    1
    19    18    20   ar
    20    20    21   ar
    21    11    22    1
    22    22    23   ar
    23    23    24   ar
    24    24    25    1
    25    25    26    1
    26    24    27   ar
    27    27    28    1
    28    27    29   ar
    29    29    30   ar
    30     8    31    1
    31    31    32    1
    32    31    33    1
    33    33    34    1
    34    33    35    1
    35    35    36    1
    36    35     1    1
    37    21    10   ar
    38    30    22   ar
    39    20    13   ar
    40     1    37    1
    41     2    38    1
    42     2    39    1
    43     5    40    1
    44     5    41    1
    45     5    42    1
    46     8    43    1
    47    14    44    1
    48    16    45    1
    49    17    46    1
    50    19    47    1
    51    21    48    1
    52    23    49    1
    53    26    50    1
    54    26    51    1
    55    26    52    1
    56    28    53    1
    57    29    54    1
    58    30    55    1
    59    31    56    1
    60    32    57    1
    61    33    58    1
    62    34    59    1
    63    35    60    1
    64    36    61    1
