@<TRIPOS>MOLECULE
Cyanidin 3-O-(6''-acetyl-glucoside)
 58 61 0 0 0
SMALL
GASTEIGER

@<TRIPOS>ATOM
      1 C          -3.1788   -0.1757   -0.9158 C.3     1  UNL1        0.1250
      2 C          -4.1180    0.2993   -2.0346 C.3     1  UNL1        0.1212
      3 O          -5.4698   -0.0737   -1.7684 O.3     1  UNL1       -0.4621
      4 C          -5.9551   -1.3769   -1.9230 C.2     1  UNL1        0.3040
      5 C          -7.3561   -1.6894   -1.5214 C.3     1  UNL1        0.0332
      6 O          -5.2119   -2.2965   -2.3615 O.2     1  UNL1       -0.2512
      7 O          -1.8619    0.2393   -1.2243 O.3     1  UNL1       -0.3302
      8 C          -0.9101   -0.4509   -0.4257 C.3     1  UNL1        0.2313
      9 O           0.3450    0.2116   -0.5940 O.3     1  UNL1       -0.4515
     10 C           1.6080   -0.2876   -0.2266 C.ar    1  UNL1        0.2288
     11 C           1.7991   -1.6132    0.1966 C.ar    1  UNL1        0.0093
     12 C           3.0864   -2.0719    0.4987 C.ar    1  UNL1        0.1241
     13 C           3.3283   -3.3933    0.9220 C.ar    1  UNL1        0.1366
     14 O           2.2734   -4.2955    1.0643 O.3     1  UNL1       -0.5057
     15 C           4.6408   -3.8015    1.2018 C.ar    1  UNL1        0.0225
     16 C           5.7088   -2.9048    1.0616 C.ar    1  UNL1        0.1293
     17 O           7.0136   -3.3071    1.3379 O.3     1  UNL1       -0.5063
     18 C           5.4670   -1.5937    0.6413 C.ar    1  UNL1        0.0847
     19 C           4.1637   -1.1724    0.3604 C.ar    1  UNL1        0.3708
     20 O           3.9479    0.0772   -0.0339 O.2     1  UNL1       -0.1997
     21 C           2.7368    0.5541   -0.3145 C.ar    1  UNL1        0.4046
     22 C           2.6234    1.9714   -0.7254 C.ar    1  UNL1        0.0865
     23 C           3.5683    2.5138   -1.6097 C.ar    1  UNL1       -0.0418
     24 C           3.4868    3.8539   -1.9968 C.ar    1  UNL1       -0.0157
     25 C           2.4687    4.6747   -1.4934 C.ar    1  UNL1        0.1583
     26 O           2.3877    6.0104   -1.8840 O.3     1  UNL1       -0.5033
     27 C           1.5322    4.1465   -0.5890 C.ar    1  UNL1        0.1591
     28 O           0.5151    4.9398   -0.0590 O.3     1  UNL1       -0.5033
     29 C           1.6168    2.8038   -0.2042 C.ar    1  UNL1       -0.0003
     30 C          -1.2963   -0.4681    1.0887 C.3     1  UNL1        0.1454
     31 O          -1.7929   -1.7337    1.4461 O.3     1  UNL1       -0.3829
     32 C          -2.3749    0.5904    1.3861 C.3     1  UNL1        0.1152
     33 O          -1.8449    1.8774    1.1866 O.3     1  UNL1       -0.3864
     34 C          -3.6033    0.3967    0.4630 C.3     1  UNL1        0.1130
     35 O          -4.5209   -0.4846    1.0604 O.3     1  UNL1       -0.3864
     36 H          -3.2302   -1.2905   -0.8940 H       1  UNL1        0.0658
     37 H          -3.7927   -0.1219   -3.0111 H       1  UNL1        0.0724
     38 H          -4.0652    1.4062   -2.1156 H       1  UNL1        0.0724
     39 H          -7.3632   -2.0822   -0.4835 H       1  UNL1        0.0342
     40 H          -7.9773   -0.7705   -1.5674 H       1  UNL1        0.0342
     41 H          -7.7891   -2.4497   -2.2052 H       1  UNL1        0.0342
     42 H          -0.8213   -1.4869   -0.8222 H       1  UNL1        0.1084
     43 H           0.9627   -2.2905    0.2738 H       1  UNL1        0.0667
     44 H           2.4277   -5.2499    1.3679 H       1  UNL1        0.2922
     45 H           4.8310   -4.8165    1.5277 H       1  UNL1        0.0691
     46 H           7.2236   -4.2499    1.6445 H       1  UNL1        0.2921
     47 H           6.2932   -0.9015    0.5343 H       1  UNL1        0.0749
     48 H           4.3621    1.8956   -2.0113 H       1  UNL1        0.0628
     49 H           4.2168    4.2541   -2.6889 H       1  UNL1        0.0655
     50 H           3.0521    6.4145   -2.5337 H       1  UNL1        0.2923
     51 H           0.4116    5.9170   -0.3044 H       1  UNL1        0.2923
     52 H           0.9091    2.4211    0.5197 H       1  UNL1        0.0664
     53 H          -0.4057   -0.2357    1.7194 H       1  UNL1        0.0683
     54 H          -1.0086   -2.3226    1.5959 H       1  UNL1        0.2102
     55 H          -2.6991    0.4940    2.4496 H       1  UNL1        0.0648
     56 H          -1.2618    2.0738    1.9659 H       1  UNL1        0.2100
     57 H          -4.0908    1.3912    0.3194 H       1  UNL1        0.0647
     58 H          -5.0075    0.0315    1.7552 H       1  UNL1        0.2100
@<TRIPOS>UNITY_ATOM_ATTR
20 1
charge 1
@<TRIPOS>BOND
     1     1     2    1
     2     2     3    1
     3     3     4    1
     4     4     5    1
     5     4     6    2
     6     1     7    1
     7     7     8    1
     8     8     9    1
     9     9    10    1
    10    10    11   ar
    11    11    12   ar
    12    12    13   ar
    13    13    14    1
    14    13    15   ar
    15    15    16   ar
    16    16    17    1
    17    16    18   ar
    18    18    19   ar
    19    19    20   ar
    20    20    21   ar
    21    21    22    1
    22    22    23   ar
    23    23    24   ar
    24    24    25   ar
    25    25    26    1
    26    25    27   ar
    27    27    28    1
    28    27    29   ar
    29     8    30    1
    30    30    31    1
    31    30    32    1
    32    32    33    1
    33    32    34    1
    34    34    35    1
    35    34     1    1
    36    21    10   ar
    37    29    22   ar
    38    19    12   ar
    39     1    36    1
    40     2    37    1
    41     2    38    1
    42     5    39    1
    43     5    40    1
    44     5    41    1
    45     8    42    1
    46    11    43    1
    47    14    44    1
    48    15    45    1
    49    17    46    1
    50    18    47    1
    51    23    48    1
    52    24    49    1
    53    26    50    1
    54    28    51    1
    55    29    52    1
    56    30    53    1
    57    31    54    1
    58    32    55    1
    59    33    56    1
    60    34    57    1
    61    35    58    1
