@<TRIPOS>MOLECULE
Malvidin 3-O-(6''-acetyl-galactoside)
 65 68 0 0 0
SMALL
GASTEIGER

@<TRIPOS>ATOM
      1 C           3.3913   -1.6272    1.2913 C.3     1  UNL1        0.1250
      2 C           4.0091   -0.4441    2.0663 C.3     1  UNL1        0.1212
      3 O           3.1750   -0.1085    3.1712 O.3     1  UNL1       -0.4621
      4 C           3.4714    0.9365    4.0503 C.2     1  UNL1        0.3040
      5 C           2.5517    1.2219    5.1883 C.3     1  UNL1        0.0332
      6 O           4.5269    1.6132    3.9150 O.2     1  UNL1       -0.2512
      7 O           1.9961   -1.4647    1.0670 O.3     1  UNL1       -0.3302
      8 C           1.7094   -0.4662    0.1015 C.3     1  UNL1        0.2313
      9 O           0.2889   -0.3457    0.0083 O.3     1  UNL1       -0.4515
     10 C          -0.4201    0.6845   -0.6366 C.ar    1  UNL1        0.2288
     11 C          -1.8174    0.5670   -0.7975 C.ar    1  UNL1        0.4047
     12 O          -2.5104    1.5610   -1.3495 O.2     1  UNL1       -0.1997
     13 C          -1.9505    2.6809   -1.7915 C.ar    1  UNL1        0.3708
     14 C          -2.7505    3.6747   -2.3639 C.ar    1  UNL1        0.0847
     15 C          -2.1749    4.8577   -2.8362 C.ar    1  UNL1        0.1293
     16 O          -2.9870    5.8369   -3.4040 O.3     1  UNL1       -0.5063
     17 C          -0.7901    5.0494   -2.7355 C.ar    1  UNL1        0.0225
     18 C           0.0245    4.0617   -2.1624 C.ar    1  UNL1        0.1366
     19 O           1.4017    4.2646   -2.0668 O.3     1  UNL1       -0.5057
     20 C          -0.5571    2.8701   -1.6873 C.ar    1  UNL1        0.1241
     21 C           0.2058    1.8550   -1.0989 C.ar    1  UNL1        0.0093
     22 C          -2.5591   -0.6362   -0.3535 C.ar    1  UNL1        0.0899
     23 C          -2.0701   -1.9279   -0.6054 C.ar    1  UNL1        0.0002
     24 C          -2.7900   -3.0612   -0.1867 C.ar    1  UNL1        0.1658
     25 O          -2.3189   -4.3660   -0.4036 O.3     1  UNL1       -0.4913
     26 C          -1.0676   -4.6827   -1.0052 C.3     1  UNL1        0.0790
     27 C          -4.0194   -2.8965    0.4663 C.ar    1  UNL1        0.2011
     28 O          -4.7222   -4.0312    0.8749 O.3     1  UNL1       -0.5009
     29 C          -4.5348   -1.6091    0.7020 C.ar    1  UNL1        0.1658
     30 O          -5.7736   -1.4848    1.3517 O.3     1  UNL1       -0.4913
     31 C          -6.4095   -0.2463    1.6512 C.3     1  UNL1        0.0790
     32 C          -3.7989   -0.4849    0.2832 C.ar    1  UNL1        0.0002
     33 C           2.2919   -0.8502   -1.2794 C.3     1  UNL1        0.1454
     34 O           1.6377   -1.9725   -1.8222 O.3     1  UNL1       -0.3829
     35 C           3.8113   -1.0870   -1.1850 C.3     1  UNL1        0.1152
     36 O           4.4837    0.1384   -1.0382 O.3     1  UNL1       -0.3864
     37 C           4.1492   -2.0180   -0.0035 C.3     1  UNL1        0.1130
     38 O           5.5348   -2.0391    0.2300 O.3     1  UNL1       -0.3864
     39 H           3.4905   -2.5015    1.9721 H       1  UNL1        0.0658
     40 H           4.1383    0.4457    1.4181 H       1  UNL1        0.0724
     41 H           5.0128   -0.7358    2.4457 H       1  UNL1        0.0724
     42 H           2.5047    2.3154    5.3757 H       1  UNL1        0.0342
     43 H           1.5310    0.8549    4.9517 H       1  UNL1        0.0342
     44 H           2.9213    0.7086    6.1001 H       1  UNL1        0.0342
     45 H           2.1179    0.5083    0.4406 H       1  UNL1        0.1084
     46 H          -3.8207    3.5277   -2.4427 H       1  UNL1        0.0749
     47 H          -2.6021    6.7057   -3.7561 H       1  UNL1        0.2921
     48 H          -0.3469    5.9667   -3.1022 H       1  UNL1        0.0691
     49 H           1.8381    5.1150   -2.4031 H       1  UNL1        0.2922
     50 H           1.2720    1.9893   -0.9903 H       1  UNL1        0.0667
     51 H          -1.1435   -2.0476   -1.1482 H       1  UNL1        0.0664
     52 H          -0.9480   -5.7850   -1.0340 H       1  UNL1        0.0660
     53 H          -0.2377   -4.2507   -0.4072 H       1  UNL1        0.0660
     54 H          -1.0334   -4.2949   -2.0452 H       1  UNL1        0.0660
     55 H          -5.6146   -3.9738    1.3504 H       1  UNL1        0.2924
     56 H          -6.6157    0.3136    0.7147 H       1  UNL1        0.0660
     57 H          -5.7683    0.3587    2.3265 H       1  UNL1        0.0660
     58 H          -7.3725   -0.4482    2.1633 H       1  UNL1        0.0660
     59 H          -4.1786    0.5128    0.4606 H       1  UNL1        0.0664
     60 H           2.1224   -0.0093   -1.9840 H       1  UNL1        0.0683
     61 H           1.6822   -2.7092   -1.1602 H       1  UNL1        0.2102
     62 H           4.1581   -1.5815   -2.1232 H       1  UNL1        0.0648
     63 H           4.4880    0.5748   -1.9301 H       1  UNL1        0.2100
     64 H           3.8197   -3.0491   -0.2728 H       1  UNL1        0.0647
     65 H           5.9464   -2.5340   -0.5261 H       1  UNL1        0.2100
@<TRIPOS>UNITY_ATOM_ATTR
12 1
charge 1
@<TRIPOS>BOND
     1     1     2    1
     2     2     3    1
     3     3     4    1
     4     4     5    1
     5     4     6    2
     6     1     7    1
     7     7     8    1
     8     8     9    1
     9     9    10    1
    10    10    11   ar
    11    11    12   ar
    12    12    13   ar
    13    13    14   ar
    14    14    15   ar
    15    15    16    1
    16    15    17   ar
    17    17    18   ar
    18    18    19    1
    19    18    20   ar
    20    20    21   ar
    21    11    22    1
    22    22    23   ar
    23    23    24   ar
    24    24    25    1
    25    25    26    1
    26    24    27   ar
    27    27    28    1
    28    27    29   ar
    29    29    30    1
    30    30    31    1
    31    29    32   ar
    32     8    33    1
    33    33    34    1
    34    33    35    1
    35    35    36    1
    36    35    37    1
    37    37    38    1
    38    37     1    1
    39    21    10   ar
    40    32    22   ar
    41    20    13   ar
    42     1    39    1
    43     2    40    1
    44     2    41    1
    45     5    42    1
    46     5    43    1
    47     5    44    1
    48     8    45    1
    49    14    46    1
    50    16    47    1
    51    17    48    1
    52    19    49    1
    53    21    50    1
    54    23    51    1
    55    26    52    1
    56    26    53    1
    57    26    54    1
    58    28    55    1
    59    31    56    1
    60    31    57    1
    61    31    58    1
    62    32    59    1
    63    33    60    1
    64    34    61    1
    65    35    62    1
    66    36    63    1
    67    37    64    1
    68    38    65    1
