@<TRIPOS>MOLECULE
Petunidin 3-O-(6''-acetyl-glucoside)
 62 65 0 0 0
SMALL
GASTEIGER

@<TRIPOS>ATOM
      1 C           3.6867   -0.2647   -0.1435 C.3     1  UNL1        0.1250
      2 C           4.3210    1.1295   -0.1212 C.3     1  UNL1        0.1212
      3 O           3.6497    1.9932   -1.0350 O.3     1  UNL1       -0.4621
      4 C           4.0126    3.3304   -1.2142 C.2     1  UNL1        0.3040
      5 C           3.2462    4.1768   -2.1726 C.3     1  UNL1        0.0332
      6 O           4.9522    3.8388   -0.5442 O.2     1  UNL1       -0.2512
      7 O           2.3016   -0.1447    0.1094 O.3     1  UNL1       -0.3302
      8 C           1.7381   -1.4004    0.4661 C.3     1  UNL1        0.2313
      9 O           0.3166   -1.2931    0.4009 O.3     1  UNL1       -0.4515
     10 C          -0.4770   -0.4398    1.1871 C.ar    1  UNL1        0.2288
     11 C           0.0705    0.3886    2.1813 C.ar    1  UNL1        0.0093
     12 C          -0.7544    1.2665    2.9035 C.ar    1  UNL1        0.1241
     13 C          -0.2703    2.1406    3.9124 C.ar    1  UNL1        0.1366
     14 O           1.0745    2.2067    4.2891 O.3     1  UNL1       -0.5057
     15 C          -1.1662    2.9881    4.5760 C.ar    1  UNL1        0.0225
     16 C          -2.5259    2.9861    4.2587 C.ar    1  UNL1        0.1293
     17 O          -3.3908    3.8421    4.9370 O.3     1  UNL1       -0.5063
     18 C          -3.0073    2.1276    3.2661 C.ar    1  UNL1        0.0847
     19 C          -2.1340    1.2715    2.5902 C.ar    1  UNL1        0.3708
     20 O          -2.6180    0.4641    1.6537 O.2     1  UNL1       -0.1997
     21 C          -1.8656   -0.3851    0.9604 C.ar    1  UNL1        0.4047
     22 C          -2.5269   -1.2358   -0.0557 C.ar    1  UNL1        0.0899
     23 C          -3.5191   -0.6828   -0.8787 C.ar    1  UNL1        0.0002
     24 C          -4.1726   -1.4694   -1.8472 C.ar    1  UNL1        0.1658
     25 O          -5.1591   -0.9364   -2.6928 O.3     1  UNL1       -0.4913
     26 C          -5.5990    0.4178   -2.6695 C.3     1  UNL1        0.0790
     27 C          -3.8314   -2.8286   -1.9759 C.ar    1  UNL1        0.2008
     28 O          -4.4590   -3.6319   -2.9296 O.3     1  UNL1       -0.5009
     29 C          -2.8541   -3.3906   -1.1372 C.ar    1  UNL1        0.1628
     30 O          -2.5082   -4.7382   -1.2367 O.3     1  UNL1       -0.5032
     31 C          -2.2142   -2.5986   -0.1809 C.ar    1  UNL1       -0.0000
     32 C           2.1880   -2.5641   -0.4663 C.3     1  UNL1        0.1454
     33 O           3.1273   -3.3610    0.2119 O.3     1  UNL1       -0.3829
     34 C           2.8112   -2.0313   -1.7762 C.3     1  UNL1        0.1152
     35 O           1.8127   -1.5158   -2.6250 O.3     1  UNL1       -0.3864
     36 C           3.9173   -0.9742   -1.5018 C.3     1  UNL1        0.1130
     37 O           5.1801   -1.5907   -1.4813 O.3     1  UNL1       -0.3864
     38 H           4.1789   -0.8487    0.6717 H       1  UNL1        0.0658
     39 H           5.3981    1.0590   -0.3894 H       1  UNL1        0.0724
     40 H           4.2395    1.5474    0.9063 H       1  UNL1        0.0724
     41 H           2.4669    4.7444   -1.6231 H       1  UNL1        0.0342
     42 H           2.7591    3.5366   -2.9378 H       1  UNL1        0.0342
     43 H           3.9287    4.8889   -2.6827 H       1  UNL1        0.0342
     44 H           2.0167   -1.6466    1.5163 H       1  UNL1        0.1084
     45 H           1.1283    0.3450    2.3701 H       1  UNL1        0.0667
     46 H           1.8108    1.6468    3.8852 H       1  UNL1        0.2922
     47 H          -0.8003    3.6560    5.3461 H       1  UNL1        0.0691
     48 H          -4.3828    3.8655    4.7310 H       1  UNL1        0.2921
     49 H          -4.0618    2.1242    3.0188 H       1  UNL1        0.0749
     50 H          -3.7667    0.3648   -0.7687 H       1  UNL1        0.0664
     51 H          -4.7516    1.0987   -2.8965 H       1  UNL1        0.0660
     52 H          -6.0317    0.6619   -1.6763 H       1  UNL1        0.0660
     53 H          -6.3828    0.5572   -3.4419 H       1  UNL1        0.0660
     54 H          -5.1696   -3.2744   -3.5565 H       1  UNL1        0.2924
     55 H          -2.9410   -5.3580   -1.9108 H       1  UNL1        0.2923
     56 H          -1.4878   -3.0586    0.4773 H       1  UNL1        0.0664
     57 H           1.3016   -3.1934   -0.7211 H       1  UNL1        0.0683
     58 H           3.1694   -4.2304   -0.2661 H       1  UNL1        0.2102
     59 H           3.2639   -2.8922   -2.3158 H       1  UNL1        0.0648
     60 H           1.4352   -0.7016   -2.2030 H       1  UNL1        0.2100
     61 H           3.8931   -0.2206   -2.3249 H       1  UNL1        0.0647
     62 H           5.4326   -1.7632   -2.4260 H       1  UNL1        0.2100
@<TRIPOS>UNITY_ATOM_ATTR
20 1
charge 1
@<TRIPOS>BOND
     1     1     2    1
     2     2     3    1
     3     3     4    1
     4     4     5    1
     5     4     6    2
     6     1     7    1
     7     7     8    1
     8     8     9    1
     9     9    10    1
    10    10    11   ar
    11    11    12   ar
    12    12    13   ar
    13    13    14    1
    14    13    15   ar
    15    15    16   ar
    16    16    17    1
    17    16    18   ar
    18    18    19   ar
    19    19    20   ar
    20    20    21   ar
    21    21    22    1
    22    22    23   ar
    23    23    24   ar
    24    24    25    1
    25    25    26    1
    26    24    27   ar
    27    27    28    1
    28    27    29   ar
    29    29    30    1
    30    29    31   ar
    31     8    32    1
    32    32    33    1
    33    32    34    1
    34    34    35    1
    35    34    36    1
    36    36    37    1
    37    36     1    1
    38    21    10   ar
    39    31    22   ar
    40    19    12   ar
    41     1    38    1
    42     2    39    1
    43     2    40    1
    44     5    41    1
    45     5    42    1
    46     5    43    1
    47     8    44    1
    48    11    45    1
    49    14    46    1
    50    15    47    1
    51    17    48    1
    52    18    49    1
    53    23    50    1
    54    26    51    1
    55    26    52    1
    56    26    53    1
    57    28    54    1
    58    30    55    1
    59    31    56    1
    60    32    57    1
    61    33    58    1
    62    34    59    1
    63    35    60    1
    64    36    61    1
    65    37    62    1
