@<TRIPOS>MOLECULE
Malvidin 3-O-(6''-acetyl-glucoside)
 65 68 0 0 0
SMALL
GASTEIGER

@<TRIPOS>ATOM
      1 C          -6.7753   -1.3702    0.8427 C.3     1  UNL1        0.0790
      2 O          -5.9039   -2.3089    0.2203 O.3     1  UNL1       -0.4913
      3 C          -4.6188   -2.0065   -0.2578 C.ar    1  UNL1        0.1658
      4 C          -4.0681   -0.7156   -0.1571 C.ar    1  UNL1        0.0002
      5 C          -2.7774   -0.4508   -0.6345 C.ar    1  UNL1        0.0899
      6 C          -2.0499   -1.4791   -1.2544 C.ar    1  UNL1        0.0002
      7 C          -2.5815   -2.7773   -1.3531 C.ar    1  UNL1        0.1658
      8 O          -1.8608   -3.8293   -1.9417 O.3     1  UNL1       -0.4913
      9 C          -0.5343   -3.7159   -2.4485 C.3     1  UNL1        0.0790
     10 C          -3.8702   -3.0333   -0.8508 C.ar    1  UNL1        0.2011
     11 O          -4.4271   -4.3104   -0.9357 O.3     1  UNL1       -0.5009
     12 C          -2.2240    0.9189   -0.5262 C.ar    1  UNL1        0.4047
     13 O          -3.0280    1.9438   -0.7912 O.2     1  UNL1       -0.1997
     14 C          -2.6321    3.2103   -0.7516 C.ar    1  UNL1        0.3708
     15 C          -1.2973    3.5380   -0.4169 C.ar    1  UNL1        0.1241
     16 C          -0.4273    2.4787   -0.1090 C.ar    1  UNL1        0.0093
     17 C          -0.8867    1.1510   -0.1498 C.ar    1  UNL1        0.2288
     18 O          -0.0777    0.0555    0.2065 O.3     1  UNL1       -0.4515
     19 C           1.3464    0.0368    0.3265 C.3     1  UNL1        0.2313
     20 O           1.6925   -1.1160    1.0725 O.3     1  UNL1       -0.3302
     21 C           3.0836   -1.1481    1.3443 C.3     1  UNL1        0.1250
     22 C           3.3471   -2.3220    2.3032 C.3     1  UNL1        0.1212
     23 O           4.7004   -2.3382    2.7564 O.3     1  UNL1       -0.4621
     24 C           5.2044   -1.4489    3.7119 C.2     1  UNL1        0.3040
     25 C           6.6467   -1.5121    4.0829 C.3     1  UNL1        0.0332
     26 O           4.4451   -0.6289    4.2962 O.2     1  UNL1       -0.2512
     27 C           3.8783   -1.3071    0.0262 C.3     1  UNL1        0.1130
     28 O           5.2574   -1.2734    0.2922 O.3     1  UNL1       -0.3864
     29 C           3.5160   -0.1656   -0.9392 C.3     1  UNL1        0.1152
     30 O           4.0898   -0.4221   -2.1955 O.3     1  UNL1       -0.3864
     31 C           1.9897   -0.0436   -1.0759 C.3     1  UNL1        0.1454
     32 O           1.6882    1.1074   -1.8223 O.3     1  UNL1       -0.3829
     33 C          -0.9044    4.9026   -0.3954 C.ar    1  UNL1        0.1366
     34 O           0.3935    5.3225   -0.0887 O.3     1  UNL1       -0.5057
     35 C          -1.8462    5.8945   -0.6959 C.ar    1  UNL1        0.0225
     36 C          -3.1648    5.5582   -1.0210 C.ar    1  UNL1        0.1293
     37 O          -4.0973    6.5493   -1.3194 O.3     1  UNL1       -0.5063
     38 C          -3.5526    4.2187   -1.0490 C.ar    1  UNL1        0.0847
     39 H          -7.0092   -0.5422    0.1405 H       1  UNL1        0.0660
     40 H          -7.7210   -1.8805    1.1173 H       1  UNL1        0.0660
     41 H          -6.3072   -0.9687    1.7662 H       1  UNL1        0.0660
     42 H          -4.6320    0.0846    0.3039 H       1  UNL1        0.0664
     43 H          -1.0796   -1.2596   -1.6773 H       1  UNL1        0.0664
     44 H          -0.2066   -4.7043   -2.8303 H       1  UNL1        0.0660
     45 H           0.1584   -3.3994   -1.6397 H       1  UNL1        0.0660
     46 H          -0.5056   -2.9854   -3.2843 H       1  UNL1        0.0660
     47 H          -3.9335   -5.0898   -1.3538 H       1  UNL1        0.2924
     48 H           0.5889    2.6732    0.1766 H       1  UNL1        0.0667
     49 H           1.6871    0.9439    0.8726 H       1  UNL1        0.1084
     50 H           3.3969   -0.2109    1.8606 H       1  UNL1        0.0658
     51 H           2.6614   -2.2606    3.1768 H       1  UNL1        0.0724
     52 H           3.1342   -3.2806    1.7835 H       1  UNL1        0.0724
     53 H           7.2358   -1.9303    3.2400 H       1  UNL1        0.0342
     54 H           7.0263   -0.4947    4.3148 H       1  UNL1        0.0342
     55 H           6.7713   -2.1625    4.9733 H       1  UNL1        0.0342
     56 H           3.5996   -2.2828   -0.4403 H       1  UNL1        0.0647
     57 H           5.7099   -1.7175   -0.4717 H       1  UNL1        0.2100
     58 H           3.9231    0.7878   -0.5229 H       1  UNL1        0.0648
     59 H           4.1397    0.4469   -2.6730 H       1  UNL1        0.2100
     60 H           1.6088   -0.9581   -1.5933 H       1  UNL1        0.0683
     61 H           0.8869    0.8994   -2.3703 H       1  UNL1        0.2102
     62 H           1.1622    4.7024    0.1198 H       1  UNL1        0.2922
     63 H          -1.5477    6.9354   -0.6779 H       1  UNL1        0.0691
     64 H          -3.8485    7.5316   -1.3086 H       1  UNL1        0.2921
     65 H          -4.5732    3.9599   -1.3033 H       1  UNL1        0.0749
@<TRIPOS>UNITY_ATOM_ATTR
13 1
charge 1
@<TRIPOS>BOND
     1     1     2    1
     2     2     3    1
     3     3     4   ar
     4     4     5   ar
     5     5     6   ar
     6     6     7   ar
     7     7     8    1
     8     8     9    1
     9     7    10   ar
    10    10    11    1
    11     5    12    1
    12    12    13   ar
    13    13    14   ar
    14    14    15   ar
    15    15    16   ar
    16    16    17   ar
    17    17    18    1
    18    18    19    1
    19    19    20    1
    20    20    21    1
    21    21    22    1
    22    22    23    1
    23    23    24    1
    24    24    25    1
    25    24    26    2
    26    21    27    1
    27    27    28    1
    28    27    29    1
    29    29    30    1
    30    29    31    1
    31    31    32    1
    32    15    33   ar
    33    33    34    1
    34    33    35   ar
    35    35    36   ar
    36    36    37    1
    37    36    38   ar
    38    10     3   ar
    39    17    12   ar
    40    31    19    1
    41    38    14   ar
    42     1    39    1
    43     1    40    1
    44     1    41    1
    45     4    42    1
    46     6    43    1
    47     9    44    1
    48     9    45    1
    49     9    46    1
    50    11    47    1
    51    16    48    1
    52    19    49    1
    53    21    50    1
    54    22    51    1
    55    22    52    1
    56    25    53    1
    57    25    54    1
    58    25    55    1
    59    27    56    1
    60    28    57    1
    61    29    58    1
    62    30    59    1
    63    31    60    1
    64    32    61    1
    65    34    62    1
    66    35    63    1
    67    37    64    1
    68    38    65    1
