@<TRIPOS>MOLECULE
Peonidin 3-O-(6''-acetyl-glucoside)
 61 64 0 0 0
SMALL
GASTEIGER

@<TRIPOS>ATOM
      1 C           3.0886   -0.9045   -0.1019 C.3     1  UNL1        0.1250
      2 C           4.0564   -0.4082    0.9775 C.3     1  UNL1        0.1212
      3 O           5.1302   -1.3319    1.1345 O.3     1  UNL1       -0.4621
      4 C           6.1701   -1.1307    2.0458 C.2     1  UNL1        0.3040
      5 C           7.2509   -2.1506    2.1639 C.3     1  UNL1        0.0332
      6 O           6.1821   -0.1176    2.7968 O.2     1  UNL1       -0.2512
      7 O           1.9420   -0.0660   -0.0804 O.3     1  UNL1       -0.3302
      8 C           1.0873   -0.3723   -1.1645 C.3     1  UNL1        0.2313
      9 O          -0.1853    0.2345   -0.9478 O.3     1  UNL1       -0.4515
     10 C          -1.0588   -0.0652    0.1119 C.ar    1  UNL1        0.2288
     11 C          -0.7896   -1.0883    1.0367 C.ar    1  UNL1        0.0093
     12 C          -1.7129   -1.3846    2.0525 C.ar    1  UNL1        0.1241
     13 C          -2.9064   -0.6262    2.0907 C.ar    1  UNL1        0.3708
     14 C          -3.8740   -0.8833    3.0654 C.ar    1  UNL1        0.0847
     15 C          -3.6726   -1.8885    4.0113 C.ar    1  UNL1        0.1293
     16 O          -4.6496   -2.1308    4.9744 O.3     1  UNL1       -0.5063
     17 C          -2.4940   -2.6424    3.9859 C.ar    1  UNL1        0.0225
     18 C          -1.5082   -2.4031    3.0205 C.ar    1  UNL1        0.1366
     19 O          -0.3564   -3.1942    3.0690 O.3     1  UNL1       -0.5057
     20 O          -3.1231    0.3390    1.2049 O.2     1  UNL1       -0.1997
     21 C          -2.2606    0.6568    0.2440 C.ar    1  UNL1        0.4046
     22 C          -2.6143    1.7642   -0.6735 C.ar    1  UNL1        0.0865
     23 C          -3.9330    1.8792   -1.1420 C.ar    1  UNL1       -0.0001
     24 C          -4.3026    2.9328   -2.0022 C.ar    1  UNL1        0.1621
     25 O          -5.6103    3.0648   -2.4966 O.3     1  UNL1       -0.4914
     26 C          -6.6817    2.1767   -2.1951 C.3     1  UNL1        0.0790
     27 C          -3.3360    3.8831   -2.3784 C.ar    1  UNL1        0.1585
     28 O          -3.6578    4.9405   -3.2292 O.3     1  UNL1       -0.5033
     29 C          -2.0286    3.7805   -1.8950 C.ar    1  UNL1       -0.0157
     30 C          -1.6691    2.7352   -1.0433 C.ar    1  UNL1       -0.0418
     31 C           1.6969    0.1911   -2.4663 C.3     1  UNL1        0.1454
     32 O           1.2000   -0.4978   -3.5872 O.3     1  UNL1       -0.3829
     33 C           3.2508    0.1666   -2.4297 C.3     1  UNL1        0.1152
     34 O           3.7367    1.3992   -1.9592 O.3     1  UNL1       -0.3864
     35 C           3.7786   -0.9540   -1.5067 C.3     1  UNL1        0.1130
     36 O           3.5376   -2.2092   -2.0920 O.3     1  UNL1       -0.3864
     37 H           2.7811   -1.9329    0.2006 H       1  UNL1        0.0658
     38 H           4.4547    0.5920    0.6980 H       1  UNL1        0.0724
     39 H           3.5116   -0.3159    1.9429 H       1  UNL1        0.0724
     40 H           7.0175   -2.8414    3.0005 H       1  UNL1        0.0342
     41 H           7.3276   -2.7324    1.2215 H       1  UNL1        0.0342
     42 H           8.2246   -1.6536    2.3585 H       1  UNL1        0.0342
     43 H           0.9352   -1.4742   -1.2606 H       1  UNL1        0.1084
     44 H           0.1235   -1.6483    0.9414 H       1  UNL1        0.0667
     45 H          -4.7860   -0.2993    3.0877 H       1  UNL1        0.0749
     46 H          -4.5347   -2.8530    5.6759 H       1  UNL1        0.2921
     47 H          -2.3395   -3.4203    4.7235 H       1  UNL1        0.0691
     48 H           0.4307   -3.0990    2.4442 H       1  UNL1        0.2922
     49 H          -4.6620    1.1375   -0.8431 H       1  UNL1        0.0664
     50 H          -6.8786    2.1728   -1.1021 H       1  UNL1        0.0660
     51 H          -7.5965    2.5216   -2.7191 H       1  UNL1        0.0660
     52 H          -6.4377    1.1512   -2.5443 H       1  UNL1        0.0660
     53 H          -4.5889    5.0646   -3.6083 H       1  UNL1        0.2923
     54 H          -1.2894    4.5205   -2.1748 H       1  UNL1        0.0655
     55 H          -0.6584    2.7010   -0.6570 H       1  UNL1        0.0628
     56 H           1.3734    1.2509   -2.5704 H       1  UNL1        0.0683
     57 H           1.5213   -1.4351   -3.5351 H       1  UNL1        0.2102
     58 H           3.6475   -0.0067   -3.4584 H       1  UNL1        0.0648
     59 H           3.6665    2.0436   -2.7115 H       1  UNL1        0.2100
     60 H           4.8819   -0.8224   -1.3990 H       1  UNL1        0.0647
     61 H           4.1915   -2.3159   -2.8317 H       1  UNL1        0.2100
@<TRIPOS>UNITY_ATOM_ATTR
20 1
charge 1
@<TRIPOS>BOND
     1     1     2    1
     2     2     3    1
     3     3     4    1
     4     4     5    1
     5     4     6    2
     6     1     7    1
     7     7     8    1
     8     8     9    1
     9     9    10    1
    10    10    11   ar
    11    11    12   ar
    12    12    13   ar
    13    13    14   ar
    14    14    15   ar
    15    15    16    1
    16    15    17   ar
    17    17    18   ar
    18    18    19    1
    19    13    20   ar
    20    20    21   ar
    21    21    22    1
    22    22    23   ar
    23    23    24   ar
    24    24    25    1
    25    25    26    1
    26    24    27   ar
    27    27    28    1
    28    27    29   ar
    29    29    30   ar
    30     8    31    1
    31    31    32    1
    32    31    33    1
    33    33    34    1
    34    33    35    1
    35    35    36    1
    36    35     1    1
    37    21    10   ar
    38    30    22   ar
    39    18    12   ar
    40     1    37    1
    41     2    38    1
    42     2    39    1
    43     5    40    1
    44     5    41    1
    45     5    42    1
    46     8    43    1
    47    11    44    1
    48    14    45    1
    49    16    46    1
    50    17    47    1
    51    19    48    1
    52    23    49    1
    53    26    50    1
    54    26    51    1
    55    26    52    1
    56    28    53    1
    57    29    54    1
    58    30    55    1
    59    31    56    1
    60    32    57    1
    61    33    58    1
    62    34    59    1
    63    35    60    1
    64    36    61    1
