@<TRIPOS>MOLECULE
Pelargonidin 3-O-arabinoside
 48 51 0 0 0
SMALL
GASTEIGER

@<TRIPOS>ATOM
      1 C           3.5254    0.1291   -1.3484 C.3     1  UNL1        0.1141
      2 C           4.4736   -0.9921   -1.7840 C.3     1  UNL1        0.0731
      3 O           5.6704   -0.4478   -2.2679 O.3     1  UNL1       -0.3924
      4 O           2.2970   -0.4258   -0.9285 O.3     1  UNL1       -0.3313
      5 C           1.9579    0.1591    0.3109 C.3     1  UNL1        0.2312
      6 O           0.5988    0.5906    0.2923 O.3     1  UNL1       -0.4515
      7 C          -0.5206   -0.2537    0.2031 C.ar    1  UNL1        0.2288
      8 C          -0.3977   -1.6498    0.1061 C.ar    1  UNL1        0.0093
      9 C          -1.5419   -2.4432   -0.0346 C.ar    1  UNL1        0.1241
     10 C          -1.4697   -3.8454   -0.1454 C.ar    1  UNL1        0.1366
     11 O          -0.2357   -4.4957   -0.1101 O.3     1  UNL1       -0.5057
     12 C          -2.6493   -4.5902   -0.2928 C.ar    1  UNL1        0.0225
     13 C          -3.8946   -3.9482   -0.3316 C.ar    1  UNL1        0.1293
     14 O          -5.0679   -4.6847   -0.4787 O.3     1  UNL1       -0.5063
     15 C          -3.9646   -2.5564   -0.2217 C.ar    1  UNL1        0.0847
     16 C          -2.7972   -1.8012   -0.0728 C.ar    1  UNL1        0.3708
     17 O          -2.8789   -0.4799    0.0347 O.2     1  UNL1       -0.1997
     18 C          -1.8149    0.3071    0.1826 C.ar    1  UNL1        0.4045
     19 C          -2.0379    1.7661    0.3033 C.ar    1  UNL1        0.0830
     20 C          -3.0054    2.3868   -0.5042 C.ar    1  UNL1       -0.0420
     21 C          -3.2435    3.7602   -0.3951 C.ar    1  UNL1       -0.0193
     22 C          -2.5278    4.5272    0.5334 C.ar    1  UNL1        0.1169
     23 O          -2.7555    5.8964    0.6501 O.3     1  UNL1       -0.5068
     24 C          -1.5784    3.9124    1.3551 C.ar    1  UNL1       -0.0193
     25 C          -1.3381    2.5393    1.2483 C.ar    1  UNL1       -0.0420
     26 C           2.8688    1.3514    0.5558 C.3     1  UNL1        0.1454
     27 O           3.1559    1.5119    1.9197 O.3     1  UNL1       -0.3829
     28 C           4.1024    0.9709   -0.2122 C.3     1  UNL1        0.1152
     29 O           4.7648    2.1025   -0.7131 O.3     1  UNL1       -0.3864
     30 H           3.3195    0.7799   -2.2285 H       1  UNL1        0.0647
     31 H           4.6818   -1.6676   -0.9236 H       1  UNL1        0.0584
     32 H           3.9850   -1.5863   -2.5884 H       1  UNL1        0.0584
     33 H           6.2394   -1.2194   -2.5242 H       1  UNL1        0.2095
     34 H           2.1037   -0.5936    1.1185 H       1  UNL1        0.1084
     35 H           0.5776   -2.1158    0.1274 H       1  UNL1        0.0667
     36 H          -0.1637   -5.5034   -0.1886 H       1  UNL1        0.2922
     37 H          -2.5980   -5.6684   -0.3782 H       1  UNL1        0.0691
     38 H          -5.0526   -5.6946   -0.5610 H       1  UNL1        0.2921
     39 H          -4.9277   -2.0617   -0.2509 H       1  UNL1        0.0749
     40 H          -3.5675    1.8101   -1.2287 H       1  UNL1        0.0628
     41 H          -3.9848    4.2266   -1.0314 H       1  UNL1        0.0654
     42 H          -3.4378    6.3710    0.0703 H       1  UNL1        0.2921
     43 H          -1.0322    4.4979    2.0836 H       1  UNL1        0.0654
     44 H          -0.6236    2.0812    1.9201 H       1  UNL1        0.0628
     45 H           2.4235    2.2829    0.1301 H       1  UNL1        0.0683
     46 H           2.3370    1.8905    2.3341 H       1  UNL1        0.2102
     47 H           4.7862    0.3602    0.4259 H       1  UNL1        0.0648
     48 H           5.2386    2.5136    0.0562 H       1  UNL1        0.2100
@<TRIPOS>UNITY_ATOM_ATTR
17 1
charge 1
@<TRIPOS>BOND
     1     1     2    1
     2     2     3    1
     3     1     4    1
     4     4     5    1
     5     5     6    1
     6     6     7    1
     7     7     8   ar
     8     8     9   ar
     9     9    10   ar
    10    10    11    1
    11    10    12   ar
    12    12    13   ar
    13    13    14    1
    14    13    15   ar
    15    15    16   ar
    16    16    17   ar
    17    17    18   ar
    18    18    19    1
    19    19    20   ar
    20    20    21   ar
    21    21    22   ar
    22    22    23    1
    23    22    24   ar
    24    24    25   ar
    25     5    26    1
    26    26    27    1
    27    26    28    1
    28    28    29    1
    29    28     1    1
    30    18     7   ar
    31    25    19   ar
    32    16     9   ar
    33     1    30    1
    34     2    31    1
    35     2    32    1
    36     3    33    1
    37     5    34    1
    38     8    35    1
    39    11    36    1
    40    12    37    1
    41    14    38    1
    42    15    39    1
    43    20    40    1
    44    21    41    1
    45    23    42    1
    46    24    43    1
    47    25    44    1
    48    26    45    1
    49    27    46    1
    50    28    47    1
    51    29    48    1
