@<TRIPOS>MOLECULE
Cyanidin 3-O-glucoside
 53 56 0 0 0
SMALL
GASTEIGER

@<TRIPOS>ATOM
      1 O           2.3319   -0.9453    2.8986 O.3     1  UNL1       -0.3924
      2 C           1.6991   -1.2014    1.6734 C.3     1  UNL1        0.0731
      3 C           2.7045   -1.1199    0.5105 C.3     1  UNL1        0.1140
      4 O           2.1533   -1.7218   -0.6622 O.3     1  UNL1       -0.3313
      5 C           1.6645   -0.7936   -1.6183 C.3     1  UNL1        0.2312
      6 O           0.6041   -0.0048   -1.0729 O.3     1  UNL1       -0.4515
      7 C          -0.6640   -0.4811   -0.6985 C.ar    1  UNL1        0.2288
      8 C          -1.0360   -1.8267   -0.8528 C.ar    1  UNL1        0.0093
      9 C          -2.2951   -2.2665   -0.4120 C.ar    1  UNL1        0.1241
     10 C          -3.1480   -1.3091    0.1862 C.ar    1  UNL1        0.3708
     11 C          -4.4093   -1.6845    0.6560 C.ar    1  UNL1        0.0847
     12 C          -4.8405   -3.0060    0.5403 C.ar    1  UNL1        0.1293
     13 O          -6.1011   -3.3610    1.0153 O.3     1  UNL1       -0.5063
     14 C          -4.0061   -3.9614   -0.0504 C.ar    1  UNL1        0.0225
     15 C          -2.7380   -3.6104   -0.5299 C.ar    1  UNL1        0.1366
     16 O          -1.9680   -4.6233   -1.1092 O.3     1  UNL1       -0.5057
     17 O          -2.7634   -0.0443    0.3108 O.2     1  UNL1       -0.1997
     18 C          -1.5843    0.4050   -0.1080 C.ar    1  UNL1        0.4046
     19 C          -1.2662    1.8362    0.0987 C.ar    1  UNL1        0.0865
     20 C          -1.6149    2.4531    1.3095 C.ar    1  UNL1       -0.0003
     21 C          -1.3293    3.8050    1.5382 C.ar    1  UNL1        0.1591
     22 O          -1.6937    4.3488    2.7716 O.3     1  UNL1       -0.5033
     23 C          -0.6914    4.5627    0.5276 C.ar    1  UNL1        0.1583
     24 O          -0.3708    5.9127    0.6846 O.3     1  UNL1       -0.5033
     25 C          -0.3646    3.9499   -0.6869 C.ar    1  UNL1       -0.0157
     26 C          -0.6539    2.6021   -0.9059 C.ar    1  UNL1       -0.0418
     27 C           2.7914    0.1246   -2.1559 C.3     1  UNL1        0.1454
     28 O           3.3986   -0.4406   -3.2916 O.3     1  UNL1       -0.3829
     29 C           3.8597    0.4442   -1.0832 C.3     1  UNL1        0.1152
     30 O           4.3575    1.7439   -1.2707 O.3     1  UNL1       -0.3864
     31 C           3.2555    0.3212    0.3187 C.3     1  UNL1        0.1120
     32 O           4.2386    0.5781    1.2900 O.3     1  UNL1       -0.3865
     33 H           2.8312   -1.7690    3.1391 H       1  UNL1        0.2095
     34 H           1.2231   -2.2085    1.6929 H       1  UNL1        0.0584
     35 H           0.8910   -0.4550    1.5384 H       1  UNL1        0.0584
     36 H           3.5700   -1.7611    0.7904 H       1  UNL1        0.0647
     37 H           1.2593   -1.3614   -2.4840 H       1  UNL1        0.1084
     38 H          -0.3352   -2.5125   -1.2941 H       1  UNL1        0.0667
     39 H          -5.0566   -0.9462    1.1134 H       1  UNL1        0.0749
     40 H          -6.4448   -4.3118    0.9468 H       1  UNL1        0.2921
     41 H          -4.3443   -4.9864   -0.1395 H       1  UNL1        0.0691
     42 H          -1.0471   -4.4899   -1.5005 H       1  UNL1        0.2922
     43 H          -2.0987    1.8777    2.0900 H       1  UNL1        0.0664
     44 H          -1.5364    5.3113    3.0330 H       1  UNL1        0.2923
     45 H          -0.5605    6.4442    1.5219 H       1  UNL1        0.2923
     46 H           0.1123    4.5256   -1.4702 H       1  UNL1        0.0655
     47 H          -0.4159    2.1665   -1.8679 H       1  UNL1        0.0628
     48 H           2.3162    1.0776   -2.4798 H       1  UNL1        0.0683
     49 H           3.7447   -1.3347   -3.0319 H       1  UNL1        0.2102
     50 H           4.7007   -0.2868   -1.1517 H       1  UNL1        0.0648
     51 H           4.9431    1.7113   -2.0719 H       1  UNL1        0.2100
     52 H           2.4231    1.0589    0.4211 H       1  UNL1        0.0647
     53 H           4.3045    1.5644    1.3831 H       1  UNL1        0.2100
@<TRIPOS>UNITY_ATOM_ATTR
17 1
charge 1
@<TRIPOS>BOND
     1     1     2    1
     2     2     3    1
     3     3     4    1
     4     4     5    1
     5     5     6    1
     6     6     7    1
     7     7     8   ar
     8     8     9   ar
     9     9    10   ar
    10    10    11   ar
    11    11    12   ar
    12    12    13    1
    13    12    14   ar
    14    14    15   ar
    15    15    16    1
    16    10    17   ar
    17    17    18   ar
    18    18    19    1
    19    19    20   ar
    20    20    21   ar
    21    21    22    1
    22    21    23   ar
    23    23    24    1
    24    23    25   ar
    25    25    26   ar
    26     5    27    1
    27    27    28    1
    28    27    29    1
    29    29    30    1
    30    29    31    1
    31    31    32    1
    32    31     3    1
    33    18     7   ar
    34    26    19   ar
    35    15     9   ar
    36     1    33    1
    37     2    34    1
    38     2    35    1
    39     3    36    1
    40     5    37    1
    41     8    38    1
    42    11    39    1
    43    13    40    1
    44    14    41    1
    45    16    42    1
    46    20    43    1
    47    22    44    1
    48    24    45    1
    49    25    46    1
    50    26    47    1
    51    27    48    1
    52    28    49    1
    53    29    50    1
    54    30    51    1
    55    31    52    1
    56    32    53    1
