@<TRIPOS>MOLECULE
Delphinidin 3-O-rutinoside
 74 78 0 0 0
SMALL
GASTEIGER

@<TRIPOS>ATOM
      1 C           6.0171   -0.5271    1.5651 C.3     1  UNL1       -0.0361
      2 C           4.9111   -0.7506    0.5321 C.3     1  UNL1        0.0873
      3 O           3.6920   -0.2744    1.0810 O.3     1  UNL1       -0.3431
      4 C           2.6280   -0.3464    0.1412 C.3     1  UNL1        0.1879
      5 O           2.8909    0.4493   -1.0058 O.3     1  UNL1       -0.3461
      6 C           2.7525    1.8299   -0.7168 C.3     1  UNL1        0.0796
      7 C           1.4544    2.3692   -1.3354 C.3     1  UNL1        0.1144
      8 O           0.3596    1.6502   -0.8055 O.3     1  UNL1       -0.3313
      9 C          -0.8115    1.8732   -1.5757 C.3     1  UNL1        0.2312
     10 O          -1.9136    1.2770   -0.8923 O.3     1  UNL1       -0.4515
     11 C          -2.0455   -0.0946   -0.6133 C.ar    1  UNL1        0.2288
     12 C          -1.3071   -1.0721   -1.3017 C.ar    1  UNL1        0.0093
     13 C          -1.5236   -2.4288   -1.0329 C.ar    1  UNL1        0.1241
     14 C          -0.8372   -3.4476   -1.7230 C.ar    1  UNL1        0.1366
     15 O           0.0725   -3.1319   -2.7327 O.3     1  UNL1       -0.5057
     16 C          -1.0798   -4.7898   -1.3969 C.ar    1  UNL1        0.0225
     17 C          -2.0094   -5.1234   -0.4068 C.ar    1  UNL1        0.1293
     18 O          -2.2344   -6.4636   -0.1002 O.3     1  UNL1       -0.5063
     19 C          -2.7081   -4.1117    0.2641 C.ar    1  UNL1        0.0847
     20 C          -2.4722   -2.7689   -0.0460 C.ar    1  UNL1        0.3708
     21 O          -3.1464   -1.8195    0.5927 O.2     1  UNL1       -0.1997
     22 C          -2.9730   -0.5202    0.3600 C.ar    1  UNL1        0.4047
     23 C          -3.7785    0.4431    1.1426 C.ar    1  UNL1        0.0899
     24 C          -5.1394    0.1873    1.3666 C.ar    1  UNL1       -0.0000
     25 C          -5.9176    1.0810    2.1150 C.ar    1  UNL1        0.1628
     26 O          -7.2730    0.8306    2.3226 O.3     1  UNL1       -0.5032
     27 C          -5.3347    2.2331    2.6587 C.ar    1  UNL1        0.2006
     28 O          -6.1259    3.1137    3.3970 O.3     1  UNL1       -0.5009
     29 C          -3.9667    2.4851    2.4598 C.ar    1  UNL1        0.1628
     30 O          -3.3788    3.6232    3.0100 O.3     1  UNL1       -0.5032
     31 C          -3.1939    1.5871    1.7113 C.ar    1  UNL1       -0.0000
     32 C          -1.1124    3.3846   -1.7951 C.3     1  UNL1        0.1454
     33 O          -0.9226    3.6981   -3.1528 O.3     1  UNL1       -0.3829
     34 C          -0.2046    4.2847   -0.9279 C.3     1  UNL1        0.1152
     35 O          -0.6325    4.2734    0.4136 O.3     1  UNL1       -0.3864
     36 C           1.2918    3.8855   -1.0472 C.3     1  UNL1        0.1120
     37 O           1.9030    4.6107   -2.0845 O.3     1  UNL1       -0.3865
     38 C           2.3577   -1.8028   -0.2797 C.3     1  UNL1        0.1341
     39 O           1.8805   -2.5400    0.8181 O.3     1  UNL1       -0.3841
     40 C           3.6417   -2.4516   -0.8229 C.3     1  UNL1        0.1140
     41 O           3.4392   -3.8252   -1.0348 O.3     1  UNL1       -0.3864
     42 C           4.8020   -2.2471    0.1646 C.3     1  UNL1        0.1095
     43 O           6.0036   -2.6769   -0.4240 O.3     1  UNL1       -0.3866
     44 H           7.0028   -0.8362    1.1571 H       1  UNL1        0.0255
     45 H           5.8078   -1.1056    2.4904 H       1  UNL1        0.0255
     46 H           6.0724    0.5512    1.8263 H       1  UNL1        0.0255
     47 H           5.1907   -0.1617   -0.3719 H       1  UNL1        0.0621
     48 H           1.6998    0.0053    0.6485 H       1  UNL1        0.0937
     49 H           3.6116    2.3610   -1.1796 H       1  UNL1        0.0587
     50 H           2.7907    2.0659    0.3742 H       1  UNL1        0.0587
     51 H           1.5270    2.2001   -2.4374 H       1  UNL1        0.0647
     52 H          -0.7084    1.3808   -2.5690 H       1  UNL1        0.1084
     53 H          -0.5869   -0.7862   -2.0546 H       1  UNL1        0.0667
     54 H           0.5740   -3.8512   -3.2404 H       1  UNL1        0.2922
     55 H          -0.5497   -5.5771   -1.9181 H       1  UNL1        0.0691
     56 H          -2.9017   -6.7395    0.6107 H       1  UNL1        0.2921
     57 H          -3.4337   -4.3680    1.0261 H       1  UNL1        0.0749
     58 H          -5.6002   -0.6996    0.9481 H       1  UNL1        0.0664
     59 H          -7.7245    0.0066    1.9429 H       1  UNL1        0.2923
     60 H          -5.7500    3.9587    3.8103 H       1  UNL1        0.2924
     61 H          -2.3947    3.8278    2.8811 H       1  UNL1        0.2923
     62 H          -2.1340    1.7718    1.5955 H       1  UNL1        0.0664
     63 H          -2.1761    3.5894   -1.5246 H       1  UNL1        0.0683
     64 H          -1.4055    4.5485   -3.3253 H       1  UNL1        0.2102
     65 H          -0.3220    5.3332   -1.2803 H       1  UNL1        0.0648
     66 H          -0.4378    3.3798    0.7956 H       1  UNL1        0.2100
     67 H           1.7920    4.1409   -0.0822 H       1  UNL1        0.0647
     68 H           2.0661    5.5276   -1.7400 H       1  UNL1        0.2100
     69 H           1.5980   -1.8038   -1.0921 H       1  UNL1        0.0671
     70 H           0.9209   -2.3082    0.9253 H       1  UNL1        0.2101
     71 H           3.9129   -1.9636   -1.7896 H       1  UNL1        0.0648
     72 H           2.8697   -3.9088   -1.8437 H       1  UNL1        0.2100
     73 H           4.6013   -2.8295    1.0959 H       1  UNL1        0.0646
     74 H           6.0324   -3.6649   -0.3321 H       1  UNL1        0.2100
@<TRIPOS>UNITY_ATOM_ATTR
21 1
charge 1
@<TRIPOS>BOND
     1     1     2    1
     2     2     3    1
     3     3     4    1
     4     4     5    1
     5     5     6    1
     6     6     7    1
     7     7     8    1
     8     8     9    1
     9     9    10    1
    10    10    11    1
    11    11    12   ar
    12    12    13   ar
    13    13    14   ar
    14    14    15    1
    15    14    16   ar
    16    16    17   ar
    17    17    18    1
    18    17    19   ar
    19    19    20   ar
    20    20    21   ar
    21    21    22   ar
    22    22    23    1
    23    23    24   ar
    24    24    25   ar
    25    25    26    1
    26    25    27   ar
    27    27    28    1
    28    27    29   ar
    29    29    30    1
    30    29    31   ar
    31     9    32    1
    32    32    33    1
    33    32    34    1
    34    34    35    1
    35    34    36    1
    36    36    37    1
    37     4    38    1
    38    38    39    1
    39    38    40    1
    40    40    41    1
    41    40    42    1
    42    42    43    1
    43    42     2    1
    44    36     7    1
    45    22    11   ar
    46    31    23   ar
    47    20    13   ar
    48     1    44    1
    49     1    45    1
    50     1    46    1
    51     2    47    1
    52     4    48    1
    53     6    49    1
    54     6    50    1
    55     7    51    1
    56     9    52    1
    57    12    53    1
    58    15    54    1
    59    16    55    1
    60    18    56    1
    61    19    57    1
    62    24    58    1
    63    26    59    1
    64    28    60    1
    65    30    61    1
    66    31    62    1
    67    32    63    1
    68    33    64    1
    69    34    65    1
    70    35    66    1
    71    36    67    1
    72    37    68    1
    73    38    69    1
    74    39    70    1
    75    40    71    1
    76    41    72    1
    77    42    73    1
    78    43    74    1
