@<TRIPOS>MOLECULE
Cyanidin 3-O-sambubioside
 71 74 0 0 0
SMALL
GASTEIGER

@<TRIPOS>ATOM
      1 CL          0.0000    0.0000    0.0000 Cl      1  UNL1        0.0000
      2 O           1.6318    5.6248    2.0455 O.3     2  UNL2       -0.3924
      3 C           0.6625    4.8579    1.3821 C.3     2  UNL2        0.0731
      4 C           1.2011    3.4578    1.0530 C.3     2  UNL2        0.1140
      5 O           0.1271    2.6850    0.5351 O.3     2  UNL2       -0.3313
      6 C           0.6050    1.4370    0.0717 C.3     2  UNL2        0.2316
      7 O          -0.4951    0.5567   -0.1435 O.3     2  UNL2       -0.4514
      8 C          -1.3433    0.0478    0.8534 C.ar    2  UNL2        0.2288
      9 C          -1.1981    0.3920    2.2073 C.ar    2  UNL2        0.0093
     10 C          -2.0448   -0.1732    3.1747 C.ar    2  UNL2        0.1241
     11 C          -1.9580    0.1283    4.5595 C.ar    2  UNL2        0.1366
     12 O          -1.0323    1.0314    5.0909 O.3     2  UNL2       -0.5057
     13 C          -2.8347   -0.4960    5.4555 C.ar    2  UNL2        0.0225
     14 C          -3.7950   -1.4077    5.0032 C.ar    2  UNL2        0.1293
     15 O          -4.6648   -2.0254    5.8993 O.3     2  UNL2       -0.5063
     16 C          -3.8859   -1.7027    3.6429 C.ar    2  UNL2        0.0847
     17 C          -3.0218   -1.0943    2.7288 C.ar    2  UNL2        0.3708
     18 O          -3.1313   -1.3934    1.4396 O.2     2  UNL2       -0.1997
     19 C          -2.3567   -0.8627    0.4981 C.ar    2  UNL2        0.4046
     20 C          -2.5716   -1.2839   -0.9053 C.ar    2  UNL2        0.0865
     21 C          -2.8231   -2.6360   -1.1888 C.ar    2  UNL2       -0.0003
     22 C          -3.0056   -3.0668   -2.5077 C.ar    2  UNL2        0.1591
     23 O          -3.2328   -4.4206   -2.7526 O.3     2  UNL2       -0.5033
     24 C          -2.9559   -2.1371   -3.5598 C.ar    2  UNL2        0.1583
     25 O          -3.1325   -2.5603   -4.8762 O.3     2  UNL2       -0.5033
     26 C          -2.7321   -0.7830   -3.2794 C.ar    2  UNL2       -0.0157
     27 C          -2.5492   -0.3566   -1.9619 C.ar    2  UNL2       -0.0418
     28 C           1.3580    1.6285   -1.2630 C.3     2  UNL2        0.1519
     29 O           2.3678    0.6344   -1.3606 O.3     2  UNL2       -0.3366
     30 C           2.1287   -0.2623   -2.4319 C.3     2  UNL2        0.1882
     31 O           0.9084   -0.9765   -2.2251 O.3     2  UNL2       -0.3461
     32 C           1.0491   -2.2259   -1.5586 C.3     2  UNL2        0.0792
     33 C           2.2379   -2.2915   -0.5887 C.3     2  UNL2        0.1069
     34 O           2.2447   -3.5398    0.0531 O.3     2  UNL2       -0.3869
     35 C           3.5611   -2.0744   -1.3545 C.3     2  UNL2        0.1137
     36 O           4.4957   -1.4873   -0.4853 O.3     2  UNL2       -0.3864
     37 C           3.3584   -1.1776   -2.6049 C.3     2  UNL2        0.1341
     38 O           3.1761   -1.9721   -3.7497 O.3     2  UNL2       -0.3841
     39 C           2.0184    3.0299   -1.3338 C.3     2  UNL2        0.1155
     40 O           1.1297    3.9539   -1.9115 O.3     2  UNL2       -0.3863
     41 C           2.4159    3.5330    0.0657 C.3     2  UNL2        0.1120
     42 O           3.4753    2.7459    0.5481 O.3     2  UNL2       -0.3865
     43 H           1.6726    5.2871    2.9782 H       2  UNL2        0.2095
     44 H           0.3722    5.3778    0.4443 H       2  UNL2        0.0584
     45 H          -0.2516    4.7722    2.0135 H       2  UNL2        0.0584
     46 H           1.5274    3.0068    2.0191 H       2  UNL2        0.0647
     47 H           1.2846    0.9627    0.8209 H       2  UNL2        0.1084
     48 H          -0.4220    1.0815    2.4878 H       2  UNL2        0.0667
     49 H          -0.3648    1.5556    4.5443 H       2  UNL2        0.2922
     50 H          -2.7683   -0.2677    6.5121 H       2  UNL2        0.0691
     51 H          -4.6258   -1.8334    6.8935 H       2  UNL2        0.2921
     52 H          -4.6306   -2.4078    3.2945 H       2  UNL2        0.0749
     53 H          -2.8538   -3.3636   -0.3866 H       2  UNL2        0.0664
     54 H          -3.3696   -4.7826   -3.6887 H       2  UNL2        0.2923
     55 H          -3.1013   -1.9087   -5.6517 H       2  UNL2        0.2923
     56 H          -2.7047   -0.0578   -4.0827 H       2  UNL2        0.0655
     57 H          -2.4060    0.6991   -1.7705 H       2  UNL2        0.0628
     58 H           0.6078    1.5766   -2.0915 H       2  UNL2        0.0687
     59 H           2.0344    0.3155   -3.3806 H       2  UNL2        0.0937
     60 H           0.1194   -2.4158   -0.9838 H       2  UNL2        0.0587
     61 H           1.1311   -3.0358   -2.3159 H       2  UNL2        0.0587
     62 H           2.0953   -1.4873    0.1714 H       2  UNL2        0.0643
     63 H           2.8594   -3.4575    0.8285 H       2  UNL2        0.2100
     64 H           3.9450   -3.0701   -1.6833 H       2  UNL2        0.0647
     65 H           5.3931   -1.6383   -0.8828 H       2  UNL2        0.2100
     66 H           4.2528   -0.5270   -2.7550 H       2  UNL2        0.0671
     67 H           4.0716   -2.3160   -4.0062 H       2  UNL2        0.2101
     68 H           2.9407    2.9758   -1.9606 H       2  UNL2        0.0648
     69 H           1.1446    3.7950   -2.8916 H       2  UNL2        0.2100
     70 H           2.7786    4.5824   -0.0474 H       2  UNL2        0.0647
     71 H           3.8793    3.2442    1.3060 H       2  UNL2        0.2100
@<TRIPOS>UNITY_ATOM_ATTR
1 1
charge -1
18 1
charge 1
@<TRIPOS>BOND
     1     2     3    1
     2     3     4    1
     3     4     5    1
     4     5     6    1
     5     6     7    1
     6     7     8    1
     7     8     9   ar
     8     9    10   ar
     9    10    11   ar
    10    11    12    1
    11    11    13   ar
    12    13    14   ar
    13    14    15    1
    14    14    16   ar
    15    16    17   ar
    16    17    18   ar
    17    18    19   ar
    18    19    20    1
    19    20    21   ar
    20    21    22   ar
    21    22    23    1
    22    22    24   ar
    23    24    25    1
    24    24    26   ar
    25    26    27   ar
    26     6    28    1
    27    28    29    1
    28    29    30    1
    29    30    31    1
    30    31    32    1
    31    32    33    1
    32    33    34    1
    33    33    35    1
    34    35    36    1
    35    35    37    1
    36    37    38    1
    37    28    39    1
    38    39    40    1
    39    39    41    1
    40    41    42    1
    41    41     4    1
    42    19     8   ar
    43    27    20   ar
    44    37    30    1
    45    17    10   ar
    46     2    43    1
    47     3    44    1
    48     3    45    1
    49     4    46    1
    50     6    47    1
    51     9    48    1
    52    12    49    1
    53    13    50    1
    54    15    51    1
    55    16    52    1
    56    21    53    1
    57    23    54    1
    58    25    55    1
    59    26    56    1
    60    27    57    1
    61    28    58    1
    62    30    59    1
    63    32    60    1
    64    32    61    1
    65    33    62    1
    66    34    63    1
    67    35    64    1
    68    36    65    1
    69    37    66    1
    70    38    67    1
    71    39    68    1
    72    40    69    1
    73    41    70    1
    74    42    71    1
