@<TRIPOS>MOLECULE
Pelargonidin 3-O-(6''-malonyl-glucoside)
 60 63 0 0 0
SMALL
GASTEIGER

@<TRIPOS>ATOM
      1 O          -3.3363   -1.4646   -3.3669 O.3     1  UNL1       -0.3864
      2 C          -2.7968   -1.0806   -2.1277 C.3     1  UNL1        0.1130
      3 C          -1.3222   -0.6510   -2.3132 C.3     1  UNL1        0.1250
      4 C          -1.2045    0.5612   -3.2440 C.3     1  UNL1        0.1212
      5 O          -1.8711    1.6856   -2.6769 O.3     1  UNL1       -0.4616
      6 C          -1.9374    2.9260   -3.3164 C.2     1  UNL1        0.3180
      7 O          -1.4038    3.0978   -4.4465 O.2     1  UNL1       -0.2502
      8 C          -2.6890    4.0430   -2.6707 C.3     1  UNL1        0.1418
      9 C          -4.1520    3.8826   -2.9256 C.2     1  UNL1        0.3155
     10 O          -4.7230    4.4449   -4.0629 O.3     1  UNL1       -0.4802
     11 O          -4.8606    3.2049   -2.1339 O.2     1  UNL1       -0.2504
     12 O          -0.7468   -0.3132   -1.0631 O.3     1  UNL1       -0.3302
     13 C          -0.6725   -1.4552   -0.2281 C.3     1  UNL1        0.2313
     14 O           0.0189   -1.1091    0.9703 O.3     1  UNL1       -0.4515
     15 C           1.3701   -0.7298    1.0491 C.ar    1  UNL1        0.2288
     16 C           2.1903   -0.6428   -0.0885 C.ar    1  UNL1        0.0093
     17 C           3.5187   -0.2027    0.0293 C.ar    1  UNL1        0.1241
     18 C           4.4007   -0.0777   -1.0765 C.ar    1  UNL1        0.1366
     19 O           4.0333   -0.3882   -2.3893 O.3     1  UNL1       -0.5057
     20 C           5.7080    0.3780   -0.8654 C.ar    1  UNL1        0.0225
     21 C           6.1539    0.7117    0.4182 C.ar    1  UNL1        0.1293
     22 O           7.4553    1.1652    0.6220 O.3     1  UNL1       -0.5063
     23 C           5.2899    0.5902    1.5065 C.ar    1  UNL1        0.0847
     24 C           3.9811    0.1367    1.3225 C.ar    1  UNL1        0.3708
     25 O           3.1817    0.0274    2.3771 O.2     1  UNL1       -0.1997
     26 C           1.9237   -0.3967    2.3003 C.ar    1  UNL1        0.4045
     27 C           1.1386   -0.4841    3.5528 C.ar    1  UNL1        0.0830
     28 C           0.3103   -1.5892    3.8234 C.ar    1  UNL1       -0.0420
     29 C          -0.4089   -1.6569    5.0203 C.ar    1  UNL1       -0.0193
     30 C          -0.2984   -0.6305    5.9673 C.ar    1  UNL1        0.1169
     31 O          -1.0114   -0.6868    7.1627 O.3     1  UNL1       -0.5068
     32 C           0.5395    0.4594    5.7135 C.ar    1  UNL1       -0.0193
     33 C           1.2600    0.5300    4.5173 C.ar    1  UNL1       -0.0420
     34 C          -2.0853   -1.9325    0.1416 C.3     1  UNL1        0.1454
     35 O          -1.9883   -3.0750    0.9531 O.3     1  UNL1       -0.3829
     36 C          -2.8740   -2.2596   -1.1407 C.3     1  UNL1        0.1152
     37 O          -4.2196   -2.5110   -0.8254 O.3     1  UNL1       -0.3864
     38 H          -4.3235   -1.4004   -3.2838 H       1  UNL1        0.2100
     39 H          -3.3710   -0.2194   -1.7089 H       1  UNL1        0.0647
     40 H          -0.7513   -1.4810   -2.7932 H       1  UNL1        0.0658
     41 H          -1.6429    0.3243   -4.2380 H       1  UNL1        0.0724
     42 H          -0.1289    0.8048   -3.3873 H       1  UNL1        0.0724
     43 H          -2.3450    5.0194   -3.0750 H       1  UNL1        0.0493
     44 H          -2.4930    4.0364   -1.5769 H       1  UNL1        0.0493
     45 H          -5.7103    4.3311   -4.2589 H       1  UNL1        0.2951
     46 H          -0.1193   -2.2869   -0.7257 H       1  UNL1        0.1084
     47 H           1.7796   -0.9066   -1.0468 H       1  UNL1        0.0667
     48 H           3.1228   -0.7258   -2.6649 H       1  UNL1        0.2922
     49 H           6.3813    0.4736   -1.7083 H       1  UNL1        0.0691
     50 H           8.1082    1.2649   -0.1466 H       1  UNL1        0.2921
     51 H           5.6370    0.8484    2.4996 H       1  UNL1        0.0749
     52 H           0.2358   -2.4111    3.1230 H       1  UNL1        0.0628
     53 H          -1.0449   -2.5112    5.2142 H       1  UNL1        0.0654
     54 H          -1.6257   -1.4638    7.3766 H       1  UNL1        0.2921
     55 H           0.6332    1.2525    6.4444 H       1  UNL1        0.0654
     56 H           1.9028    1.3834    4.3384 H       1  UNL1        0.0628
     57 H          -2.5988   -1.1084    0.6933 H       1  UNL1        0.0683
     58 H          -2.8194   -3.1163    1.4944 H       1  UNL1        0.2102
     59 H          -2.4213   -3.1563   -1.6298 H       1  UNL1        0.0648
     60 H          -4.2771   -3.4592   -0.5371 H       1  UNL1        0.2100
@<TRIPOS>UNITY_ATOM_ATTR
25 1
charge 1
@<TRIPOS>BOND
     1     1     2    1
     2     2     3    1
     3     3     4    1
     4     4     5    1
     5     5     6    1
     6     6     7    2
     7     6     8    1
     8     8     9    1
     9     9    10    1
    10     9    11    2
    11     3    12    1
    12    12    13    1
    13    13    14    1
    14    14    15    1
    15    15    16   ar
    16    16    17   ar
    17    17    18   ar
    18    18    19    1
    19    18    20   ar
    20    20    21   ar
    21    21    22    1
    22    21    23   ar
    23    23    24   ar
    24    24    25   ar
    25    25    26   ar
    26    26    27    1
    27    27    28   ar
    28    28    29   ar
    29    29    30   ar
    30    30    31    1
    31    30    32   ar
    32    32    33   ar
    33    13    34    1
    34    34    35    1
    35    34    36    1
    36    36    37    1
    37    36     2    1
    38    26    15   ar
    39    33    27   ar
    40    24    17   ar
    41     1    38    1
    42     2    39    1
    43     3    40    1
    44     4    41    1
    45     4    42    1
    46     8    43    1
    47     8    44    1
    48    10    45    1
    49    13    46    1
    50    16    47    1
    51    19    48    1
    52    20    49    1
    53    22    50    1
    54    23    51    1
    55    28    52    1
    56    29    53    1
    57    31    54    1
    58    32    55    1
    59    33    56    1
    60    34    57    1
    61    35    58    1
    62    36    59    1
    63    37    60    1
