@<TRIPOS>MOLECULE
Peonidin 3-O-(6''-p-coumaroyl-glucoside)
 73 77 0 0 0
SMALL
GASTEIGER

@<TRIPOS>ATOM
      1 C           1.3634    0.0627   -0.3564 C.3     1  UNL1        0.1250
      2 C           1.9589   -0.7684    0.7887 C.3     1  UNL1        0.1215
      3 O           3.3626   -0.9162    0.5978 O.3     1  UNL1       -0.4589
      4 C           4.1775   -1.6298    1.4825 C.2     1  UNL1        0.3320
      5 O           3.6800   -2.1935    2.4947 O.2     1  UNL1       -0.2456
      6 C           5.6257   -1.7298    1.2444 C.2     1  UNL1        0.0231
      7 C           6.2081   -1.1582    0.1813 C.2     1  UNL1       -0.0478
      8 C           7.6615   -1.2389   -0.1068 C.ar    1  UNL1       -0.0246
      9 C           8.6189   -1.5215    0.8892 C.ar    1  UNL1       -0.0511
     10 C           9.9790   -1.5749    0.5679 C.ar    1  UNL1       -0.0196
     11 C          10.4035   -1.3387   -0.7453 C.ar    1  UNL1        0.1169
     12 O          11.7559   -1.3908   -1.0755 O.3     1  UNL1       -0.5068
     13 C           9.4621   -1.0438   -1.7347 C.ar    1  UNL1       -0.0196
     14 C           8.1016   -0.9886   -1.4178 C.ar    1  UNL1       -0.0511
     15 O          -0.0598    0.0397   -0.3002 O.3     1  UNL1       -0.3302
     16 C          -0.5956    1.0919    0.4862 C.3     1  UNL1        0.2313
     17 O          -1.9931    0.8757    0.7130 O.3     1  UNL1       -0.4515
     18 C          -2.9724    0.5205   -0.2375 C.ar    1  UNL1        0.2288
     19 C          -4.2880    0.2673    0.1979 C.ar    1  UNL1        0.4046
     20 O          -5.2102   -0.1373   -0.6703 O.2     1  UNL1       -0.1997
     21 C          -4.9728   -0.2965   -1.9665 C.ar    1  UNL1        0.3708
     22 C          -6.0103   -0.7233   -2.7994 C.ar    1  UNL1        0.0847
     23 C          -5.7912   -0.8907   -4.1697 C.ar    1  UNL1        0.1293
     24 O          -6.8210   -1.3153   -5.0064 O.3     1  UNL1       -0.5063
     25 C          -4.5296   -0.6300   -4.7083 C.ar    1  UNL1        0.0225
     26 C          -3.4730   -0.2031   -3.8944 C.ar    1  UNL1        0.1366
     27 O          -2.2420    0.0346   -4.5136 O.3     1  UNL1       -0.5057
     28 C          -3.6905   -0.0335   -2.5012 C.ar    1  UNL1        0.1241
     29 C          -2.6893    0.3816   -1.6083 C.ar    1  UNL1        0.0093
     30 C          -4.6867    0.4203    1.6155 C.ar    1  UNL1        0.0865
     31 C          -5.5188   -0.5436    2.2079 C.ar    1  UNL1       -0.0001
     32 C          -5.9303   -0.4110    3.5491 C.ar    1  UNL1        0.1621
     33 O          -6.7504   -1.3613    4.1776 O.3     1  UNL1       -0.4914
     34 C          -7.2482   -2.5382    3.5493 C.3     1  UNL1        0.0790
     35 C          -5.5130    0.7044    4.2886 C.ar    1  UNL1        0.1585
     36 O          -5.9152    0.8406    5.6163 O.3     1  UNL1       -0.5033
     37 C          -4.7006    1.6780    3.6941 C.ar    1  UNL1       -0.0157
     38 C          -4.2955    1.5420    2.3653 C.ar    1  UNL1       -0.0418
     39 C          -0.3171    2.4963   -0.1220 C.3     1  UNL1        0.1454
     40 O          -1.4169    2.9589   -0.8628 O.3     1  UNL1       -0.3829
     41 C           0.9416    2.4769   -1.0118 C.3     1  UNL1        0.1152
     42 O           1.4832    3.7713   -1.0792 O.3     1  UNL1       -0.3864
     43 C           1.9721    1.4969   -0.4239 C.3     1  UNL1        0.1130
     44 O           3.1669    1.5028   -1.1673 O.3     1  UNL1       -0.3864
     45 H           1.6327   -0.4626   -1.2991 H       1  UNL1        0.0658
     46 H           1.4818   -1.7727    0.7969 H       1  UNL1        0.0725
     47 H           1.7673   -0.2772    1.7667 H       1  UNL1        0.0725
     48 H           6.2070   -2.3061    1.9509 H       1  UNL1        0.0689
     49 H           5.5879   -0.6368   -0.5390 H       1  UNL1        0.0626
     50 H           8.3316   -1.6783    1.9192 H       1  UNL1        0.0625
     51 H          10.7029   -1.7928    1.3429 H       1  UNL1        0.0654
     52 H          12.4629   -1.6009   -0.3806 H       1  UNL1        0.2921
     53 H           9.7849   -0.8557   -2.7508 H       1  UNL1        0.0654
     54 H           7.3896   -0.7578   -2.2010 H       1  UNL1        0.0625
     55 H          -0.1226    1.0657    1.4935 H       1  UNL1        0.1084
     56 H          -6.9888   -0.9228   -2.3799 H       1  UNL1        0.0749
     57 H          -7.7479   -1.5127   -4.6477 H       1  UNL1        0.2921
     58 H          -4.3672   -0.7611   -5.7711 H       1  UNL1        0.0691
     59 H          -1.4096    0.3459   -4.0348 H       1  UNL1        0.2922
     60 H          -1.7009    0.6034   -1.9638 H       1  UNL1        0.0667
     61 H          -5.8311   -1.3988    1.6231 H       1  UNL1        0.0664
     62 H          -6.4049   -3.1830    3.2233 H       1  UNL1        0.0660
     63 H          -7.8822   -2.2673    2.6787 H       1  UNL1        0.0660
     64 H          -7.8665   -3.1032    4.2765 H       1  UNL1        0.0660
     65 H          -5.6320    1.6355    6.1775 H       1  UNL1        0.2923
     66 H          -4.3889    2.5466    4.2601 H       1  UNL1        0.0655
     67 H          -3.6960    2.3253    1.9187 H       1  UNL1        0.0628
     68 H          -0.1444    3.1913    0.7347 H       1  UNL1        0.0683
     69 H          -1.2947    3.9370   -0.9817 H       1  UNL1        0.2102
     70 H           0.6502    2.1298   -2.0329 H       1  UNL1        0.0648
     71 H           2.0311    3.8128   -1.9060 H       1  UNL1        0.2100
     72 H           2.2173    1.8437    0.6053 H       1  UNL1        0.0647
     73 H           2.9397    1.2776   -2.1074 H       1  UNL1        0.2100
@<TRIPOS>UNITY_ATOM_ATTR
20 1
charge 1
@<TRIPOS>BOND
     1     1     2    1
     2     2     3    1
     3     3     4    1
     4     4     5    2
     5     4     6    1
     6     6     7    2
     7     7     8    1
     8     8     9   ar
     9     9    10   ar
    10    10    11   ar
    11    11    12    1
    12    11    13   ar
    13    13    14   ar
    14     1    15    1
    15    15    16    1
    16    16    17    1
    17    17    18    1
    18    18    19   ar
    19    19    20   ar
    20    20    21   ar
    21    21    22   ar
    22    22    23   ar
    23    23    24    1
    24    23    25   ar
    25    25    26   ar
    26    26    27    1
    27    26    28   ar
    28    28    29   ar
    29    19    30    1
    30    30    31   ar
    31    31    32   ar
    32    32    33    1
    33    33    34    1
    34    32    35   ar
    35    35    36    1
    36    35    37   ar
    37    37    38   ar
    38    16    39    1
    39    39    40    1
    40    39    41    1
    41    41    42    1
    42    41    43    1
    43    43    44    1
    44    43     1    1
    45    14     8   ar
    46    29    18   ar
    47    38    30   ar
    48    28    21   ar
    49     1    45    1
    50     2    46    1
    51     2    47    1
    52     6    48    1
    53     7    49    1
    54     9    50    1
    55    10    51    1
    56    12    52    1
    57    13    53    1
    58    14    54    1
    59    16    55    1
    60    22    56    1
    61    24    57    1
    62    25    58    1
    63    27    59    1
    64    29    60    1
    65    31    61    1
    66    34    62    1
    67    34    63    1
    68    34    64    1
    69    36    65    1
    70    37    66    1
    71    38    67    1
    72    39    68    1
    73    40    69    1
    74    41    70    1
    75    42    71    1
    76    43    72    1
    77    44    73    1
