@<TRIPOS>MOLECULE
Cyanidin 3-O-xyloside
 49 52 0 0 0
SMALL
GASTEIGER

@<TRIPOS>ATOM
      1 C           3.3291   -0.4835    1.2110 C.3     1  UNL1        0.1141
      2 C           2.8267    0.4598    2.3155 C.3     1  UNL1        0.0731
      3 O           1.5904    1.0192    1.9644 O.3     1  UNL1       -0.3924
      4 O           2.3165   -1.4041    0.8570 O.3     1  UNL1       -0.3313
      5 C           2.0965   -1.3026   -0.5334 C.3     1  UNL1        0.2312
      6 O           0.9440   -0.4954   -0.7717 O.3     1  UNL1       -0.4515
      7 C          -0.3566   -0.7765   -0.3234 C.ar    1  UNL1        0.2288
      8 C          -0.6996   -2.0119    0.2495 C.ar    1  UNL1        0.0093
      9 C          -2.0025   -2.2320    0.7259 C.ar    1  UNL1        0.1241
     10 C          -2.9299   -1.1702    0.6043 C.ar    1  UNL1        0.3708
     11 C          -4.2396   -1.3218    1.0669 C.ar    1  UNL1        0.0847
     12 C          -4.6460   -2.5241    1.6528 C.ar    1  UNL1        0.1293
     13 O          -5.9503   -2.6823    2.1162 O.3     1  UNL1       -0.5063
     14 C          -3.7389   -3.5785    1.7760 C.ar    1  UNL1        0.0225
     15 C          -2.4207   -3.4516    1.3208 C.ar    1  UNL1        0.1366
     16 O          -1.5771   -4.5548    1.4816 O.3     1  UNL1       -0.5057
     17 O          -2.5704   -0.0180    0.0504 O.2     1  UNL1       -0.1997
     18 C          -1.3494    0.2164   -0.4208 C.ar    1  UNL1        0.4046
     19 C          -1.0678    1.5474   -1.0054 C.ar    1  UNL1        0.0865
     20 C          -0.3283    1.6854   -2.1942 C.ar    1  UNL1       -0.0003
     21 C          -0.0699    2.9562   -2.7275 C.ar    1  UNL1        0.1591
     22 O           0.6739    3.0917   -3.8983 O.3     1  UNL1       -0.5033
     23 C          -0.5640    4.0974   -2.0836 C.ar    1  UNL1        0.1583
     24 O          -0.3026    5.3590   -2.6148 O.3     1  UNL1       -0.5033
     25 C          -1.3209    3.9634   -0.9124 C.ar    1  UNL1       -0.0157
     26 C          -1.5765    2.6968   -0.3804 C.ar    1  UNL1       -0.0418
     27 C           3.3136   -0.6450   -1.1738 C.3     1  UNL1        0.1454
     28 O           4.2545   -1.6073   -1.5903 O.3     1  UNL1       -0.3829
     29 C           3.8629    0.2151   -0.0534 C.3     1  UNL1        0.1152
     30 O           3.4446    1.5575   -0.1688 O.3     1  UNL1       -0.3864
     31 H           4.1693   -1.0708    1.6445 H       1  UNL1        0.0647
     32 H           2.7081   -0.1236    3.2559 H       1  UNL1        0.0584
     33 H           3.5762    1.2627    2.4967 H       1  UNL1        0.0584
     34 H           1.3384    1.6224    2.7109 H       1  UNL1        0.2095
     35 H           1.9384   -2.3129   -0.9700 H       1  UNL1        0.1084
     36 H           0.0532   -2.7769    0.3205 H       1  UNL1        0.0667
     37 H          -4.9419   -0.5030    0.9699 H       1  UNL1        0.0749
     38 H          -6.6331   -1.9372    2.0419 H       1  UNL1        0.2921
     39 H          -4.0610   -4.5073    2.2306 H       1  UNL1        0.0691
     40 H          -0.6116   -4.5847    1.1887 H       1  UNL1        0.2922
     41 H           0.0323    0.8104   -2.7199 H       1  UNL1        0.0664
     42 H           1.0465    2.2854   -4.3861 H       1  UNL1        0.2923
     43 H          -0.6477    6.2025   -2.1717 H       1  UNL1        0.2923
     44 H          -1.7104    4.8409   -0.4122 H       1  UNL1        0.0655
     45 H          -2.1583    2.6146    0.5296 H       1  UNL1        0.0628
     46 H           3.0251   -0.0341   -2.0581 H       1  UNL1        0.0683
     47 H           4.4905   -2.1713   -0.8070 H       1  UNL1        0.2102
     48 H           4.9756    0.2037   -0.0591 H       1  UNL1        0.0648
     49 H           2.4682    1.5734   -0.3453 H       1  UNL1        0.2100
@<TRIPOS>UNITY_ATOM_ATTR
17 1
charge 1
@<TRIPOS>BOND
     1     1     2    1
     2     2     3    1
     3     1     4    1
     4     4     5    1
     5     5     6    1
     6     6     7    1
     7     7     8   ar
     8     8     9   ar
     9     9    10   ar
    10    10    11   ar
    11    11    12   ar
    12    12    13    1
    13    12    14   ar
    14    14    15   ar
    15    15    16    1
    16    10    17   ar
    17    17    18   ar
    18    18    19    1
    19    19    20   ar
    20    20    21   ar
    21    21    22    1
    22    21    23   ar
    23    23    24    1
    24    23    25   ar
    25    25    26   ar
    26     5    27    1
    27    27    28    1
    28    27    29    1
    29    29    30    1
    30    29     1    1
    31    18     7   ar
    32    26    19   ar
    33    15     9   ar
    34     1    31    1
    35     2    32    1
    36     2    33    1
    37     3    34    1
    38     5    35    1
    39     8    36    1
    40    11    37    1
    41    13    38    1
    42    14    39    1
    43    16    40    1
    44    20    41    1
    45    22    42    1
    46    24    43    1
    47    25    44    1
    48    26    45    1
    49    27    46    1
    50    28    47    1
    51    29    48    1
    52    30    49    1
