@<TRIPOS>MOLECULE
Malvidin 3-O-galactoside
 61 63 0 0 0
SMALL
GASTEIGER

@<TRIPOS>ATOM
      1 CL          0.0000    0.0000    0.0000 Cl      1  UNL1        0.0000
      2 C          -1.9098   -1.4262   -4.0687 C.3     2  UNL2        0.0790
      3 O          -0.6057   -0.9872   -4.4354 O.3     2  UNL2       -0.4913
      4 C           0.2223   -0.1888   -3.6297 C.ar    2  UNL2        0.1658
      5 C          -0.2044    0.2993   -2.3813 C.ar    2  UNL2        0.0002
      6 C           0.6558    1.0662   -1.5794 C.ar    2  UNL2        0.0899
      7 C           1.9334    1.3882   -2.0574 C.ar    2  UNL2        0.0002
      8 C           2.3701    0.9187   -3.3095 C.ar    2  UNL2        0.1658
      9 O           3.6473    1.2135   -3.8129 O.3     2  UNL2       -0.4913
     10 C           4.6207    2.0005   -3.1341 C.3     2  UNL2        0.0790
     11 C           1.5137    0.1277   -4.0881 C.ar    2  UNL2        0.2011
     12 O           1.9650   -0.3380   -5.3241 O.3     2  UNL2       -0.5009
     13 C           0.2231    1.5725   -0.2562 C.ar    2  UNL2        0.4047
     14 O           0.5548    2.8176    0.0750 O.2     2  UNL2       -0.1997
     15 C           0.1805    3.3953    1.2116 C.ar    2  UNL2        0.3708
     16 C           0.5819    4.7081    1.4719 C.ar    2  UNL2        0.0847
     17 C           0.1952    5.3429    2.6526 C.ar    2  UNL2        0.1293
     18 O           0.6054    6.6522    2.8941 O.3     2  UNL2       -0.5063
     19 C          -0.5999    4.6620    3.5816 C.ar    2  UNL2        0.0225
     20 C          -1.0146    3.3456    3.3444 C.ar    2  UNL2        0.1366
     21 O          -1.8069    2.7341    4.3203 O.3     2  UNL2       -0.5057
     22 C          -0.6211    2.6965    2.1457 C.ar    2  UNL2        0.1241
     23 C          -0.9769    1.3755    1.8315 C.ar    2  UNL2        0.0093
     24 C          -0.5296    0.7909    0.6467 C.ar    2  UNL2        0.2288
     25 O          -0.8419   -0.5507    0.3988 O.3     2  UNL2       -0.4515
     26 C           0.1452   -1.5823    0.3264 C.3     2  UNL2        0.2312
     27 O          -0.3684   -2.6535   -0.4614 O.3     2  UNL2       -0.3313
     28 C          -0.8654   -3.7617    0.2802 C.3     2  UNL2        0.1140
     29 C          -1.7939   -4.5906   -0.6198 C.3     2  UNL2        0.0731
     30 O          -2.8317   -3.7999   -1.1378 O.3     2  UNL2       -0.3924
     31 C          -1.5577   -3.3540    1.6026 C.3     2  UNL2        0.1120
     32 O          -2.6263   -2.4800    1.3297 O.3     2  UNL2       -0.3865
     33 C          -0.5256   -2.6839    2.5411 C.3     2  UNL2        0.1152
     34 O          -1.1719   -1.7692    3.3909 O.3     2  UNL2       -0.3864
     35 C           0.6091   -1.9816    1.7514 C.3     2  UNL2        0.1454
     36 O           1.7175   -2.8420    1.6622 O.3     2  UNL2       -0.3829
     37 H          -1.8616   -2.0251   -3.1350 H       2  UNL2        0.0660
     38 H          -2.3188   -2.0637   -4.8789 H       2  UNL2        0.0660
     39 H          -2.5820   -0.5533   -3.9300 H       2  UNL2        0.0660
     40 H          -1.2070    0.0932   -2.0337 H       2  UNL2        0.0664
     41 H           2.5880    1.9913   -1.4421 H       2  UNL2        0.0664
     42 H           5.5321    2.0706   -3.7624 H       2  UNL2        0.0660
     43 H           4.2296    3.0251   -2.9598 H       2  UNL2        0.0660
     44 H           4.8910    1.5240   -2.1681 H       2  UNL2        0.0660
     45 H           1.3908   -0.9125   -5.9292 H       2  UNL2        0.2924
     46 H           1.1952    5.2375    0.7530 H       2  UNL2        0.0749
     47 H           0.3420    7.1423    3.7410 H       2  UNL2        0.2921
     48 H          -0.8991    5.1581    4.4966 H       2  UNL2        0.0691
     49 H          -2.1688    1.7939    4.2544 H       2  UNL2        0.2922
     50 H          -1.5725    0.7692    2.4946 H       2  UNL2        0.0667
     51 H           1.0359   -1.1925   -0.2094 H       2  UNL2        0.1084
     52 H          -0.0091   -4.4282    0.5294 H       2  UNL2        0.0647
     53 H          -2.1894   -5.4721   -0.0620 H       2  UNL2        0.0584
     54 H          -1.2020   -4.9859   -1.4728 H       2  UNL2        0.0584
     55 H          -3.6436   -3.9959   -0.6017 H       2  UNL2        0.2095
     56 H          -1.9426   -4.2768    2.0999 H       2  UNL2        0.0647
     57 H          -3.2835   -2.5841    2.0665 H       2  UNL2        0.2100
     58 H          -0.0735   -3.4903    3.1674 H       2  UNL2        0.0648
     59 H          -0.5589   -1.5994    4.1536 H       2  UNL2        0.2100
     60 H           0.9178   -1.0609    2.3008 H       2  UNL2        0.0683
     61 H           2.5005   -2.2821    1.4182 H       2  UNL2        0.2102
@<TRIPOS>UNITY_ATOM_ATTR
1 1
charge -1
14 1
charge 1
@<TRIPOS>BOND
     1     2     3    1
     2     3     4    1
     3     4     5   ar
     4     5     6   ar
     5     6     7   ar
     6     7     8   ar
     7     8     9    1
     8     9    10    1
     9     8    11   ar
    10    11    12    1
    11     6    13    1
    12    13    14   ar
    13    14    15   ar
    14    15    16   ar
    15    16    17   ar
    16    17    18    1
    17    17    19   ar
    18    19    20   ar
    19    20    21    1
    20    20    22   ar
    21    22    23   ar
    22    23    24   ar
    23    24    25    1
    24    25    26    1
    25    26    27    1
    26    27    28    1
    27    28    29    1
    28    29    30    1
    29    28    31    1
    30    31    32    1
    31    31    33    1
    32    33    34    1
    33    33    35    1
    34    35    36    1
    35    11     4   ar
    36    24    13   ar
    37    35    26    1
    38    22    15   ar
    39     2    37    1
    40     2    38    1
    41     2    39    1
    42     5    40    1
    43     7    41    1
    44    10    42    1
    45    10    43    1
    46    10    44    1
    47    12    45    1
    48    16    46    1
    49    18    47    1
    50    19    48    1
    51    21    49    1
    52    23    50    1
    53    26    51    1
    54    28    52    1
    55    29    53    1
    56    29    54    1
    57    30    55    1
    58    31    56    1
    59    32    57    1
    60    33    58    1
    61    34    59    1
    62    35    60    1
    63    36    61    1
