@<TRIPOS>MOLECULE
Peonidin 3-O-arabinoside
 53 56 0 0 0
SMALL
GASTEIGER

@<TRIPOS>ATOM
      1 C           4.6948   -0.7420    0.7817 C.3     1  UNL1        0.1070
      2 O           5.8460   -1.3108    1.3500 O.3     1  UNL1       -0.3869
      3 C           3.9612    0.1608    1.8123 C.3     1  UNL1        0.0802
      4 O           2.5451    0.0527    1.7642 O.3     1  UNL1       -0.3369
      5 C           2.0832    0.0875    0.4289 C.3     1  UNL1        0.2309
      6 O           0.6699    0.3034    0.4493 O.3     1  UNL1       -0.4515
      7 C          -0.1406    0.6359   -0.6526 C.ar    1  UNL1        0.2288
      8 C           0.3922    0.9242   -1.9207 C.ar    1  UNL1        0.0093
      9 C          -0.4554    1.2930   -2.9783 C.ar    1  UNL1        0.1241
     10 C           0.0121    1.5944   -4.2850 C.ar    1  UNL1        0.1366
     11 O           1.3599    1.5296   -4.6513 O.3     1  UNL1       -0.5057
     12 C          -0.9047    1.9741   -5.2731 C.ar    1  UNL1        0.0225
     13 C          -2.2702    2.0546   -4.9930 C.ar    1  UNL1        0.1293
     14 O          -3.1565    2.4344   -5.9986 O.3     1  UNL1       -0.5063
     15 C          -2.7359    1.7531   -3.7100 C.ar    1  UNL1        0.0847
     16 C          -1.8409    1.3743   -2.7061 C.ar    1  UNL1        0.3708
     17 O          -2.3099    1.0931   -1.4965 O.2     1  UNL1       -0.1997
     18 C          -1.5367    0.7215   -0.4807 C.ar    1  UNL1        0.4047
     19 C          -2.1862    0.4278    0.8176 C.ar    1  UNL1        0.0899
     20 C          -3.2195    1.2551    1.2754 C.ar    1  UNL1       -0.0000
     21 C          -3.8611    0.9997    2.4916 C.ar    1  UNL1        0.1628
     22 O          -4.8766    1.8738    2.8856 O.3     1  UNL1       -0.5032
     23 C          -3.4674   -0.1157    3.2689 C.ar    1  UNL1        0.2008
     24 O          -4.0604   -0.4172    4.4978 O.3     1  UNL1       -0.5009
     25 C          -2.4481   -0.9628    2.8068 C.ar    1  UNL1        0.1658
     26 O          -2.0849   -2.0640    3.5993 O.3     1  UNL1       -0.4913
     27 C          -1.0437   -2.9815    3.2784 C.3     1  UNL1        0.0790
     28 C          -1.8223   -0.6941    1.5762 C.ar    1  UNL1        0.0002
     29 C           2.4362   -1.2539   -0.2782 C.3     1  UNL1        0.1454
     30 O           1.3890   -2.1908   -0.1959 O.3     1  UNL1       -0.3829
     31 C           3.7692   -1.8542    0.2515 C.3     1  UNL1        0.1148
     32 O           3.5573   -2.8488    1.2273 O.3     1  UNL1       -0.3864
     33 H           4.9902   -0.1127   -0.0912 H       1  UNL1        0.0643
     34 H           6.5035   -0.5745    1.4570 H       1  UNL1        0.2100
     35 H           4.2806   -0.1223    2.8381 H       1  UNL1        0.0588
     36 H           4.2617    1.2220    1.6676 H       1  UNL1        0.0588
     37 H           2.5605    0.9439   -0.1040 H       1  UNL1        0.1084
     38 H           1.4555    0.8819   -2.0625 H       1  UNL1        0.0667
     39 H           2.1075    1.2428   -4.0367 H       1  UNL1        0.2922
     40 H          -0.5513    2.2064   -6.2702 H       1  UNL1        0.0691
     41 H          -4.1532    2.5023   -5.8286 H       1  UNL1        0.2921
     42 H          -3.7949    1.8135   -3.4911 H       1  UNL1        0.0749
     43 H          -3.5235    2.1150    0.6899 H       1  UNL1        0.0664
     44 H          -5.4095    1.7758    3.7374 H       1  UNL1        0.2923
     45 H          -4.7928    0.1319    4.9237 H       1  UNL1        0.2924
     46 H          -0.0746   -2.4454    3.1936 H       1  UNL1        0.0660
     47 H          -0.9627   -3.7354    4.0880 H       1  UNL1        0.0660
     48 H          -1.2756   -3.5059    2.3274 H       1  UNL1        0.0660
     49 H          -1.0697   -1.3675    1.1950 H       1  UNL1        0.0664
     50 H           2.5841   -1.0281   -1.3559 H       1  UNL1        0.0683
     51 H           1.1386   -2.2820    0.7598 H       1  UNL1        0.2102
     52 H           4.2850   -2.3464   -0.6024 H       1  UNL1        0.0648
     53 H           3.1454   -2.4227    2.0224 H       1  UNL1        0.2100
@<TRIPOS>UNITY_ATOM_ATTR
17 1
charge 1
@<TRIPOS>BOND
     1     1     2    1
     2     1     3    1
     3     3     4    1
     4     4     5    1
     5     5     6    1
     6     6     7    1
     7     7     8   ar
     8     8     9   ar
     9     9    10   ar
    10    10    11    1
    11    10    12   ar
    12    12    13   ar
    13    13    14    1
    14    13    15   ar
    15    15    16   ar
    16    16    17   ar
    17    17    18   ar
    18    18    19    1
    19    19    20   ar
    20    20    21   ar
    21    21    22    1
    22    21    23   ar
    23    23    24    1
    24    23    25   ar
    25    25    26    1
    26    26    27    1
    27    25    28   ar
    28     5    29    1
    29    29    30    1
    30    29    31    1
    31    31    32    1
    32    31     1    1
    33    18     7   ar
    34    28    19   ar
    35    16     9   ar
    36     1    33    1
    37     2    34    1
    38     3    35    1
    39     3    36    1
    40     5    37    1
    41     8    38    1
    42    11    39    1
    43    12    40    1
    44    14    41    1
    45    15    42    1
    46    20    43    1
    47    22    44    1
    48    24    45    1
    49    27    46    1
    50    27    47    1
    51    27    48    1
    52    28    49    1
    53    29    50    1
    54    30    51    1
    55    31    52    1
    56    32    53    1
