@<TRIPOS>MOLECULE
Petunidin 3-O-rutinoside
 73 77 0 0 0
SMALL
GASTEIGER

@<TRIPOS>ATOM
      1 C          -4.3070    1.6579   -1.0683 C.3     1  UNL1        0.0873
      2 C          -4.2810    2.4509   -2.3761 C.3     1  UNL1       -0.0361
      3 O          -4.0853    0.2905   -1.3773 O.3     1  UNL1       -0.3431
      4 C          -3.9882   -0.5055   -0.2030 C.3     1  UNL1        0.1879
      5 O          -2.9135   -0.0876    0.6246 O.3     1  UNL1       -0.3461
      6 C          -1.6634   -0.4272    0.0519 C.3     1  UNL1        0.0796
      7 C          -1.1208   -1.7294    0.6669 C.3     1  UNL1        0.1144
      8 O           0.0087   -2.1880   -0.0742 O.3     1  UNL1       -0.3313
      9 C           1.2557   -1.8426    0.5057 C.3     1  UNL1        0.2312
     10 O           1.3780   -0.4216    0.6277 O.3     1  UNL1       -0.4515
     11 C           2.6028    0.2410    0.5080 C.ar    1  UNL1        0.2288
     12 C           3.1731    0.8243    1.6389 C.ar    1  UNL1        0.0093
     13 C           4.4359    1.4328    1.5556 C.ar    1  UNL1        0.1241
     14 C           5.0786    1.4327    0.2934 C.ar    1  UNL1        0.3708
     15 C           6.3444    2.0063    0.1486 C.ar    1  UNL1        0.0847
     16 C           6.9859    2.5864    1.2471 C.ar    1  UNL1        0.1293
     17 O           8.2482    3.1596    1.1101 O.3     1  UNL1       -0.5063
     18 C           6.3582    2.5941    2.4947 C.ar    1  UNL1        0.0225
     19 C           5.0897    2.0262    2.6662 C.ar    1  UNL1        0.1366
     20 O           4.5284    2.0776    3.9454 O.3     1  UNL1       -0.5057
     21 O           4.4863    0.8951   -0.7683 O.2     1  UNL1       -0.1997
     22 C           3.2846    0.3271   -0.7221 C.ar    1  UNL1        0.4046
     23 C           2.7019   -0.1897   -1.9798 C.ar    1  UNL1        0.0865
     24 C           1.3546    0.0459   -2.3055 C.ar    1  UNL1       -0.0003
     25 C           0.8112   -0.4514   -3.4947 C.ar    1  UNL1        0.1591
     26 O          -0.5330   -0.2109   -3.7773 O.3     1  UNL1       -0.5033
     27 C           1.6223   -1.1779   -4.3826 C.ar    1  UNL1        0.1583
     28 O           1.0867   -1.6796   -5.5678 O.3     1  UNL1       -0.5033
     29 C           2.9725   -1.3917   -4.0732 C.ar    1  UNL1       -0.0157
     30 C           3.5106   -0.8950   -2.8831 C.ar    1  UNL1       -0.0418
     31 C           1.4562   -2.5304    1.8776 C.3     1  UNL1        0.1454
     32 O           2.0211   -3.8012    1.6768 O.3     1  UNL1       -0.3829
     33 C           0.1244   -2.6711    2.6554 C.3     1  UNL1        0.1152
     34 O           0.3523   -2.5401    4.0350 O.3     1  UNL1       -0.3864
     35 C          -0.8802   -1.6029    2.2011 C.3     1  UNL1        0.1120
     36 O          -2.0889   -1.7079    2.9146 O.3     1  UNL1       -0.3865
     37 C          -5.3054   -0.4741    0.5908 C.3     1  UNL1        0.1341
     38 O          -6.3166   -1.0781   -0.1773 O.3     1  UNL1       -0.3841
     39 C          -5.6839    0.9783    0.9307 C.3     1  UNL1        0.1140
     40 O          -6.9613    1.0069    1.5153 O.3     1  UNL1       -0.3864
     41 C          -5.6569    1.8475   -0.3405 C.3     1  UNL1        0.1095
     42 O          -5.8159    3.1998    0.0076 O.3     1  UNL1       -0.3866
     43 H          -3.4808    2.0557   -0.4348 H       1  UNL1        0.0621
     44 H          -5.0969    2.1144   -3.0512 H       1  UNL1        0.0255
     45 H          -4.3968    3.5376   -2.1779 H       1  UNL1        0.0255
     46 H          -3.3086    2.2932   -2.8895 H       1  UNL1        0.0255
     47 H          -3.8386   -1.5646   -0.5170 H       1  UNL1        0.0937
     48 H          -1.6966   -0.5226   -1.0594 H       1  UNL1        0.0587
     49 H          -0.9621    0.4056    0.2615 H       1  UNL1        0.0587
     50 H          -1.9022   -2.5054    0.5189 H       1  UNL1        0.0647
     51 H           2.0463   -2.2100   -0.1852 H       1  UNL1        0.1084
     52 H           2.6247    0.7597    2.5657 H       1  UNL1        0.0667
     53 H           6.8287    2.0017   -0.8202 H       1  UNL1        0.0749
     54 H           8.7311    3.1711    0.2192 H       1  UNL1        0.2921
     55 H           6.8605    3.0469    3.3407 H       1  UNL1        0.0691
     56 H           3.6168    1.7145    4.1829 H       1  UNL1        0.2922
     57 H           0.7258    0.6288   -1.6451 H       1  UNL1        0.0664
     58 H          -0.9742   -0.5500   -4.6236 H       1  UNL1        0.2923
     59 H           1.6517   -2.2053   -6.2245 H       1  UNL1        0.2923
     60 H           3.6062   -1.9451   -4.7545 H       1  UNL1        0.0655
     61 H           4.5548   -1.0758   -2.6587 H       1  UNL1        0.0628
     62 H           2.1675   -1.9060    2.4683 H       1  UNL1        0.0683
     63 H           2.4107   -4.0838    2.5452 H       1  UNL1        0.2102
     64 H          -0.3234   -3.6719    2.4434 H       1  UNL1        0.0648
     65 H           0.7624   -3.3914    4.3393 H       1  UNL1        0.2100
     66 H          -0.4464   -0.6042    2.4302 H       1  UNL1        0.0647
     67 H          -2.4545   -2.6186    2.7636 H       1  UNL1        0.2100
     68 H          -5.1563   -1.0451    1.5382 H       1  UNL1        0.0671
     69 H          -7.0074   -1.4040    0.4569 H       1  UNL1        0.2101
     70 H          -4.9302    1.3699    1.6561 H       1  UNL1        0.0648
     71 H          -7.0128    1.8352    2.0602 H       1  UNL1        0.2100
     72 H          -6.4788    1.5246   -1.0243 H       1  UNL1        0.0646
     73 H          -6.7918    3.3679    0.0777 H       1  UNL1        0.2100
@<TRIPOS>UNITY_ATOM_ATTR
21 1
charge 1
@<TRIPOS>BOND
     1     1     2    1
     2     1     3    1
     3     3     4    1
     4     4     5    1
     5     5     6    1
     6     6     7    1
     7     7     8    1
     8     8     9    1
     9     9    10    1
    10    10    11    1
    11    11    12   ar
    12    12    13   ar
    13    13    14   ar
    14    14    15   ar
    15    15    16   ar
    16    16    17    1
    17    16    18   ar
    18    18    19   ar
    19    19    20    1
    20    14    21   ar
    21    21    22   ar
    22    22    23    1
    23    23    24   ar
    24    24    25   ar
    25    25    26    1
    26    25    27   ar
    27    27    28    1
    28    27    29   ar
    29    29    30   ar
    30     9    31    1
    31    31    32    1
    32    31    33    1
    33    33    34    1
    34    33    35    1
    35    35    36    1
    36     4    37    1
    37    37    38    1
    38    37    39    1
    39    39    40    1
    40    39    41    1
    41    41    42    1
    42    41     1    1
    43    35     7    1
    44    22    11   ar
    45    30    23   ar
    46    19    13   ar
    47     1    43    1
    48     2    44    1
    49     2    45    1
    50     2    46    1
    51     4    47    1
    52     6    48    1
    53     6    49    1
    54     7    50    1
    55     9    51    1
    56    12    52    1
    57    15    53    1
    58    17    54    1
    59    18    55    1
    60    20    56    1
    61    24    57    1
    62    26    58    1
    63    28    59    1
    64    29    60    1
    65    30    61    1
    66    31    62    1
    67    32    63    1
    68    33    64    1
    69    34    65    1
    70    35    66    1
    71    36    67    1
    72    37    68    1
    73    38    69    1
    74    39    70    1
    75    40    71    1
    76    41    72    1
    77    42    73    1
