@<TRIPOS>MOLECULE
Delphinidin 3-O-xyloside
 50 53 0 0 0
SMALL
GASTEIGER

@<TRIPOS>ATOM
      1 C           3.5187   -2.0018    0.8769 C.3     1  UNL1        0.1141
      2 C           4.6994   -1.5965    1.7319 C.3     1  UNL1        0.0731
      3 O           4.4284   -1.8325    3.0903 O.3     1  UNL1       -0.3924
      4 O           2.3960   -1.2815    1.2251 O.3     1  UNL1       -0.3313
      5 C           1.7709   -0.9223    0.0119 C.3     1  UNL1        0.2312
      6 O           0.7979   -0.0717    0.0598 O.3     1  UNL1       -0.4515
      7 C          -0.1740    0.7778    0.1076 C.ar    1  UNL1        0.2288
      8 C          -1.4995    0.5282   -0.1536 C.ar    1  UNL1        0.4047
      9 O          -2.3428    1.5391   -0.0646 O.2     1  UNL1       -0.1997
     10 C          -2.0707    2.7565    0.2470 C.ar    1  UNL1        0.3708
     11 C          -3.0871    3.7256    0.2992 C.ar    1  UNL1        0.0847
     12 C          -2.7997    5.0157    0.6293 C.ar    1  UNL1        0.1293
     13 O          -3.8286    5.9729    0.6776 O.3     1  UNL1       -0.5063
     14 C          -1.5032    5.3467    0.9082 C.ar    1  UNL1        0.0225
     15 C          -0.4776    4.3990    0.8622 C.ar    1  UNL1        0.1366
     16 O           0.8110    4.7828    1.1512 O.3     1  UNL1       -0.5057
     17 C          -0.7667    3.0904    0.5277 C.ar    1  UNL1        0.1241
     18 C           0.1805    2.1147    0.4610 C.ar    1  UNL1        0.0093
     19 C          -2.0520   -0.7792   -0.5302 C.ar    1  UNL1        0.0899
     20 C          -3.2714   -0.8119   -1.2009 C.ar    1  UNL1       -0.0000
     21 C          -3.9064   -1.9826   -1.5338 C.ar    1  UNL1        0.1628
     22 O          -5.1211   -2.0178   -2.2028 O.3     1  UNL1       -0.5032
     23 C          -3.3291   -3.1814   -1.1985 C.ar    1  UNL1        0.2006
     24 O          -3.9736   -4.3829   -1.5373 O.3     1  UNL1       -0.5009
     25 C          -2.1402   -3.1870   -0.5430 C.ar    1  UNL1        0.1628
     26 O          -1.5748   -4.3984   -0.2138 O.3     1  UNL1       -0.5032
     27 C          -1.5083   -1.9734   -0.2118 C.ar    1  UNL1       -0.0000
     28 C           3.0006   -0.5002   -0.8444 C.3     1  UNL1        0.1454
     29 O           2.6511   -0.3947   -2.1808 O.3     1  UNL1       -0.3829
     30 C           3.8736   -1.6995   -0.5591 C.3     1  UNL1        0.1152
     31 O           5.2273   -1.4404   -0.7510 O.3     1  UNL1       -0.3864
     32 H           3.3964   -3.0956    1.0404 H       1  UNL1        0.0647
     33 H           4.9126   -0.5036    1.6676 H       1  UNL1        0.0584
     34 H           5.6119   -2.1625    1.4579 H       1  UNL1        0.0584
     35 H           3.5074   -1.4865    3.3052 H       1  UNL1        0.2095
     36 H           1.5308   -1.9382   -0.4465 H       1  UNL1        0.1084
     37 H          -4.0919    3.3917    0.0652 H       1  UNL1        0.0749
     38 H          -4.7648    5.6703    0.4639 H       1  UNL1        0.2921
     39 H          -1.2520    6.3667    1.1730 H       1  UNL1        0.0691
     40 H           1.6121    4.2059    1.1520 H       1  UNL1        0.2922
     41 H           1.2158    2.3407    0.6758 H       1  UNL1        0.0667
     42 H          -3.7285    0.1315   -1.4658 H       1  UNL1        0.0664
     43 H          -5.5388   -1.1292   -2.4456 H       1  UNL1        0.2923
     44 H          -3.5793   -5.2828   -1.3047 H       1  UNL1        0.2924
     45 H          -0.7078   -4.4691    0.2651 H       1  UNL1        0.2923
     46 H          -0.6120   -2.0918    0.3332 H       1  UNL1        0.0664
     47 H           3.4428    0.4069   -0.4077 H       1  UNL1        0.0683
     48 H           1.9728   -1.0922   -2.3643 H       1  UNL1        0.2102
     49 H           3.5343   -2.5594   -1.1834 H       1  UNL1        0.0648
     50 H           5.6093   -2.2969   -1.1229 H       1  UNL1        0.2100
@<TRIPOS>UNITY_ATOM_ATTR
9 1
charge 1
@<TRIPOS>BOND
     1     1     2    1
     2     2     3    1
     3     1     4    1
     4     4     5    1
     5     5     6    1
     6     6     7    1
     7     7     8   ar
     8     8     9   ar
     9     9    10   ar
    10    10    11   ar
    11    11    12   ar
    12    12    13    1
    13    12    14   ar
    14    14    15   ar
    15    15    16    1
    16    15    17   ar
    17    17    18   ar
    18     8    19    1
    19    19    20   ar
    20    20    21   ar
    21    21    22    1
    22    21    23   ar
    23    23    24    1
    24    23    25   ar
    25    25    26    1
    26    25    27   ar
    27     5    28    1
    28    28    29    1
    29    28    30    1
    30    30    31    1
    31    30     1    1
    32    18     7   ar
    33    27    19   ar
    34    17    10   ar
    35     1    32    1
    36     2    33    1
    37     2    34    1
    38     3    35    1
    39     5    36    1
    40    11    37    1
    41    13    38    1
    42    14    39    1
    43    16    40    1
    44    18    41    1
    45    20    42    1
    46    22    43    1
    47    24    44    1
    48    26    45    1
    49    27    46    1
    50    28    47    1
    51    29    48    1
    52    30    49    1
    53    31    50    1
