@<TRIPOS>MOLECULE
Petunidin 3-O-(6''-p-coumaroyl-glucoside)
 74 78 0 0 0
SMALL
GASTEIGER

@<TRIPOS>ATOM
      1 C           1.1447    2.1887   -2.1291 C.3     1  UNL1        0.1250
      2 C           2.1763    3.1585   -1.5362 C.3     1  UNL1        0.1215
      3 O           3.1313    2.4527   -0.7445 O.3     1  UNL1       -0.4589
      4 C           2.9166    2.0897    0.5919 C.2     1  UNL1        0.3320
      5 O           1.8855    2.4797    1.2039 O.2     1  UNL1       -0.2456
      6 C           3.8959    1.2540    1.3035 C.2     1  UNL1        0.0231
      7 C           5.0145    0.8143    0.7115 C.2     1  UNL1       -0.0478
      8 C           6.0314   -0.0257    1.3912 C.ar    1  UNL1       -0.0246
      9 C           5.7350   -0.8059    2.5278 C.ar    1  UNL1       -0.0511
     10 C           6.7265   -1.5908    3.1251 C.ar    1  UNL1       -0.0196
     11 C           8.0194   -1.6174    2.5957 C.ar    1  UNL1        0.1169
     12 O           8.9960   -2.4035    3.2031 O.3     1  UNL1       -0.5068
     13 C           8.3191   -0.8575    1.4586 C.ar    1  UNL1       -0.0196
     14 C           7.3308   -0.0721    0.8579 C.ar    1  UNL1       -0.0511
     15 O           0.3883    1.6107   -1.0849 O.3     1  UNL1       -0.3302
     16 C          -0.3164    0.4620   -1.5348 C.3     1  UNL1        0.2313
     17 O          -1.2815    0.1427   -0.5295 O.3     1  UNL1       -0.4515
     18 C          -2.0117   -1.0544   -0.4153 C.ar    1  UNL1        0.2288
     19 C          -2.9829   -1.1797    0.5988 C.ar    1  UNL1        0.4047
     20 O          -3.6508   -2.3215    0.7384 O.2     1  UNL1       -0.1997
     21 C          -3.4699   -3.3760   -0.0473 C.ar    1  UNL1        0.3708
     22 C          -4.2256   -4.5293    0.1790 C.ar    1  UNL1        0.0847
     23 C          -4.0537   -5.6553   -0.6313 C.ar    1  UNL1        0.1293
     24 O          -4.8024   -6.8093   -0.4107 O.3     1  UNL1       -0.5063
     25 C          -3.1242   -5.6262   -1.6729 C.ar    1  UNL1        0.0225
     26 C          -2.3569   -4.4814   -1.9216 C.ar    1  UNL1        0.1366
     27 O          -1.4564   -4.5318   -2.9899 O.3     1  UNL1       -0.5057
     28 C          -2.5243   -3.3372   -1.0975 C.ar    1  UNL1        0.1241
     29 C          -1.7874   -2.1534   -1.2610 C.ar    1  UNL1        0.0093
     30 C          -3.2750   -0.0853    1.5561 C.ar    1  UNL1        0.0899
     31 C          -3.5034   -0.4012    2.9033 C.ar    1  UNL1       -0.0000
     32 C          -3.7979    0.6037    3.8316 C.ar    1  UNL1        0.1628
     33 O          -4.0138    0.2827    5.1709 O.3     1  UNL1       -0.5032
     34 C          -3.8759    1.9389    3.4192 C.ar    1  UNL1        0.2008
     35 O          -4.1654    2.9229    4.3656 O.3     1  UNL1       -0.5009
     36 C          -3.6658    2.2749    2.0696 C.ar    1  UNL1        0.1658
     37 O          -3.7531    3.6238    1.6897 O.3     1  UNL1       -0.4913
     38 C          -3.4769    4.1157    0.3829 C.3     1  UNL1        0.0790
     39 C          -3.3784    1.2545    1.1407 C.ar    1  UNL1        0.0002
     40 C          -1.0277    0.6831   -2.9114 C.3     1  UNL1        0.1454
     41 O          -0.2865    0.0739   -3.9391 O.3     1  UNL1       -0.3829
     42 C          -1.1730    2.1859   -3.2268 C.3     1  UNL1        0.1152
     43 O          -2.0954    2.7631   -2.3374 O.3     1  UNL1       -0.3864
     44 C           0.1872    2.9242   -3.1019 C.3     1  UNL1        0.1130
     45 O           0.7918    3.0965   -4.3606 O.3     1  UNL1       -0.3864
     46 H           1.7189    1.4019   -2.6750 H       1  UNL1        0.0658
     47 H           1.6799    3.9508   -0.9333 H       1  UNL1        0.0725
     48 H           2.7209    3.6567   -2.3665 H       1  UNL1        0.0725
     49 H           3.6900    1.0209    2.3391 H       1  UNL1        0.0689
     50 H           5.2202    1.1140   -0.3097 H       1  UNL1        0.0626
     51 H           4.7392   -0.8357    2.9471 H       1  UNL1        0.0625
     52 H           6.4870   -2.1857    3.9974 H       1  UNL1        0.0654
     53 H           9.9421   -2.4450    2.8425 H       1  UNL1        0.2921
     54 H           9.3167   -0.8754    1.0385 H       1  UNL1        0.0654
     55 H           7.5841    0.5079   -0.0214 H       1  UNL1        0.0625
     56 H           0.4115   -0.3775   -1.6026 H       1  UNL1        0.1084
     57 H          -4.9465   -4.5495    0.9871 H       1  UNL1        0.0749
     58 H          -5.4852   -6.8632    0.3362 H       1  UNL1        0.2921
     59 H          -2.9981   -6.5013   -2.2984 H       1  UNL1        0.0691
     60 H          -0.8707   -3.7633   -3.2821 H       1  UNL1        0.2922
     61 H          -1.0318   -2.0799   -2.0188 H       1  UNL1        0.0667
     62 H          -3.4413   -1.4300    3.2376 H       1  UNL1        0.0664
     63 H          -3.9643   -0.6738    5.5021 H       1  UNL1        0.2923
     64 H          -4.2340    3.9039    4.1230 H       1  UNL1        0.2924
     65 H          -2.4289    3.8786    0.1032 H       1  UNL1        0.0660
     66 H          -4.1831    3.6730   -0.3508 H       1  UNL1        0.0660
     67 H          -3.6048    5.2174    0.3761 H       1  UNL1        0.0660
     68 H          -3.2630    1.4961    0.0938 H       1  UNL1        0.0664
     69 H          -2.0516    0.2403   -2.8921 H       1  UNL1        0.0683
     70 H          -0.5366   -0.8858   -3.9539 H       1  UNL1        0.2102
     71 H          -1.5553    2.3054   -4.2684 H       1  UNL1        0.0648
     72 H          -3.0001    2.4779   -2.6311 H       1  UNL1        0.2100
     73 H          -0.0202    3.9424   -2.7025 H       1  UNL1        0.0647
     74 H           0.9466    2.1971   -4.7496 H       1  UNL1        0.2100
@<TRIPOS>UNITY_ATOM_ATTR
20 1
charge 1
@<TRIPOS>BOND
     1     1     2    1
     2     2     3    1
     3     3     4    1
     4     4     5    2
     5     4     6    1
     6     6     7    2
     7     7     8    1
     8     8     9   ar
     9     9    10   ar
    10    10    11   ar
    11    11    12    1
    12    11    13   ar
    13    13    14   ar
    14     1    15    1
    15    15    16    1
    16    16    17    1
    17    17    18    1
    18    18    19   ar
    19    19    20   ar
    20    20    21   ar
    21    21    22   ar
    22    22    23   ar
    23    23    24    1
    24    23    25   ar
    25    25    26   ar
    26    26    27    1
    27    26    28   ar
    28    28    29   ar
    29    19    30    1
    30    30    31   ar
    31    31    32   ar
    32    32    33    1
    33    32    34   ar
    34    34    35    1
    35    34    36   ar
    36    36    37    1
    37    37    38    1
    38    36    39   ar
    39    16    40    1
    40    40    41    1
    41    40    42    1
    42    42    43    1
    43    42    44    1
    44    44    45    1
    45    44     1    1
    46    14     8   ar
    47    29    18   ar
    48    39    30   ar
    49    28    21   ar
    50     1    46    1
    51     2    47    1
    52     2    48    1
    53     6    49    1
    54     7    50    1
    55     9    51    1
    56    10    52    1
    57    12    53    1
    58    13    54    1
    59    14    55    1
    60    16    56    1
    61    22    57    1
    62    24    58    1
    63    25    59    1
    64    27    60    1
    65    29    61    1
    66    31    62    1
    67    33    63    1
    68    35    64    1
    69    38    65    1
    70    38    66    1
    71    38    67    1
    72    39    68    1
    73    40    69    1
    74    41    70    1
    75    42    71    1
    76    43    72    1
    77    44    73    1
    78    45    74    1
