@<TRIPOS>MOLECULE
Cyanidin 3-O-rutinoside
 73 77 0 0 0
SMALL
GASTEIGER

@<TRIPOS>ATOM
      1 C           6.6891    0.9228   -1.1421 C.3     1  UNL1       -0.0361
      2 C           6.8794    0.3286    0.2585 C.3     1  UNL1        0.0873
      3 O           5.8115   -0.5625    0.5720 O.3     1  UNL1       -0.3431
      4 C           4.7243    0.0926    1.2011 C.3     1  UNL1        0.1879
      5 O           3.6538   -0.8331    1.2764 O.3     1  UNL1       -0.3461
      6 C           2.3927   -0.1943    1.3953 C.3     1  UNL1        0.0796
      7 C           1.4538   -0.6559    0.2712 C.3     1  UNL1        0.1144
      8 O           0.1512   -0.1848    0.5754 O.3     1  UNL1       -0.3313
      9 C          -0.8019   -0.7040   -0.3333 C.3     1  UNL1        0.2312
     10 O          -2.0940   -0.2922    0.1194 O.3     1  UNL1       -0.4515
     11 C          -3.3374   -0.8423   -0.2463 C.ar    1  UNL1        0.2288
     12 C          -3.4560   -2.0688   -0.9236 C.ar    1  UNL1        0.0093
     13 C          -4.7245   -2.5988   -1.2124 C.ar    1  UNL1        0.1241
     14 C          -4.9203   -3.8296   -1.8936 C.ar    1  UNL1        0.1366
     15 O          -3.8688   -4.6221   -2.3636 O.3     1  UNL1       -0.5057
     16 C          -6.2231   -4.2909   -2.1199 C.ar    1  UNL1        0.0225
     17 C          -7.3313   -3.5536   -1.6887 C.ar    1  UNL1        0.1293
     18 O          -8.6250   -4.0173   -1.9172 O.3     1  UNL1       -0.5063
     19 C          -7.1426   -2.3417   -1.0246 C.ar    1  UNL1        0.0847
     20 C          -5.8528   -1.8606   -0.7851 C.ar    1  UNL1        0.3708
     21 O          -5.7034   -0.7025   -0.1539 O.2     1  UNL1       -0.1997
     22 C          -4.5179   -0.1644    0.1154 C.ar    1  UNL1        0.4046
     23 C          -4.4880    1.1438    0.8079 C.ar    1  UNL1        0.0865
     24 C          -5.3825    1.3894    1.8623 C.ar    1  UNL1       -0.0003
     25 C          -5.3854    2.6280    2.5200 C.ar    1  UNL1        0.1591
     26 O          -6.2646    2.8642    3.5755 O.3     1  UNL1       -0.5033
     27 C          -4.5011    3.6356    2.1151 C.ar    1  UNL1        0.1583
     28 O          -4.5054    4.8648    2.7721 O.3     1  UNL1       -0.5033
     29 C          -3.6215    3.4036    1.0497 C.ar    1  UNL1       -0.0157
     30 C          -3.6190    2.1694    0.3948 C.ar    1  UNL1       -0.0418
     31 C          -0.5351   -0.1305   -1.7403 C.3     1  UNL1        0.1454
     32 O          -1.4667   -0.6458   -2.6553 O.3     1  UNL1       -0.3829
     33 C           0.8879   -0.4998   -2.1881 C.3     1  UNL1        0.1152
     34 O           1.1831    0.1699   -3.3872 O.3     1  UNL1       -0.3864
     35 C           1.9114   -0.1117   -1.1042 C.3     1  UNL1        0.1120
     36 O           3.1654   -0.6518   -1.4369 O.3     1  UNL1       -0.3865
     37 C           5.1389    0.5426    2.6303 C.3     1  UNL1        0.1341
     38 O           4.3234    1.6010    3.0720 O.3     1  UNL1       -0.3841
     39 C           6.6432    0.9194    2.6977 C.3     1  UNL1        0.1140
     40 O           6.8771    1.8956    3.6805 O.3     1  UNL1       -0.3864
     41 C           7.1248    1.4283    1.3342 C.3     1  UNL1        0.1095
     42 O           8.4926    1.7397    1.4095 O.3     1  UNL1       -0.3866
     43 H           6.5196    0.1068   -1.8761 H       1  UNL1        0.0255
     44 H           7.5974    1.4842   -1.4467 H       1  UNL1        0.0255
     45 H           5.8197    1.6120   -1.1711 H       1  UNL1        0.0255
     46 H           7.7968   -0.2989    0.2131 H       1  UNL1        0.0621
     47 H           4.4385    0.9753    0.5785 H       1  UNL1        0.0937
     48 H           1.9521   -0.5040    2.3672 H       1  UNL1        0.0587
     49 H           2.4244    0.9203    1.4107 H       1  UNL1        0.0587
     50 H           1.4699   -1.7717    0.2602 H       1  UNL1        0.0647
     51 H          -0.7435   -1.8151   -0.3327 H       1  UNL1        0.1084
     52 H          -2.5673   -2.6025   -1.2021 H       1  UNL1        0.0667
     53 H          -2.8911   -4.3841   -2.2829 H       1  UNL1        0.2922
     54 H          -6.3730   -5.2302   -2.6378 H       1  UNL1        0.0691
     55 H          -8.7970   -4.8932   -2.3969 H       1  UNL1        0.2921
     56 H          -8.0016   -1.7712   -0.6933 H       1  UNL1        0.0749
     57 H          -6.0693    0.6149    2.1823 H       1  UNL1        0.0664
     58 H          -6.9164    2.1555    3.8913 H       1  UNL1        0.2923
     59 H          -3.8782    5.6130    2.5006 H       1  UNL1        0.2923
     60 H          -2.9448    4.1827    0.7226 H       1  UNL1        0.0655
     61 H          -2.9544    2.0266   -0.4478 H       1  UNL1        0.0628
     62 H          -0.6295    0.9807   -1.6841 H       1  UNL1        0.0683
     63 H          -1.5027   -0.0127   -3.4191 H       1  UNL1        0.2102
     64 H           0.9266   -1.6049   -2.3476 H       1  UNL1        0.0648
     65 H           1.8876   -0.3568   -3.8473 H       1  UNL1        0.2100
     66 H           1.9708    1.0021   -1.0414 H       1  UNL1        0.0647
     67 H           3.6157    0.0036   -2.0312 H       1  UNL1        0.2100
     68 H           4.9832   -0.3100    3.3276 H       1  UNL1        0.0671
     69 H           4.4871    2.3764    2.4740 H       1  UNL1        0.2101
     70 H           7.2328    0.0036    2.9441 H       1  UNL1        0.0648
     71 H           6.7693    1.4453    4.5588 H       1  UNL1        0.2100
     72 H           6.5453    2.3496    1.0859 H       1  UNL1        0.0646
     73 H           8.6967    2.3228    0.6326 H       1  UNL1        0.2100
@<TRIPOS>UNITY_ATOM_ATTR
21 1
charge 1
@<TRIPOS>BOND
     1     1     2    1
     2     2     3    1
     3     3     4    1
     4     4     5    1
     5     5     6    1
     6     6     7    1
     7     7     8    1
     8     8     9    1
     9     9    10    1
    10    10    11    1
    11    11    12   ar
    12    12    13   ar
    13    13    14   ar
    14    14    15    1
    15    14    16   ar
    16    16    17   ar
    17    17    18    1
    18    17    19   ar
    19    19    20   ar
    20    20    21   ar
    21    21    22   ar
    22    22    23    1
    23    23    24   ar
    24    24    25   ar
    25    25    26    1
    26    25    27   ar
    27    27    28    1
    28    27    29   ar
    29    29    30   ar
    30     9    31    1
    31    31    32    1
    32    31    33    1
    33    33    34    1
    34    33    35    1
    35    35    36    1
    36     4    37    1
    37    37    38    1
    38    37    39    1
    39    39    40    1
    40    39    41    1
    41    41    42    1
    42    41     2    1
    43    35     7    1
    44    22    11   ar
    45    30    23   ar
    46    20    13   ar
    47     1    43    1
    48     1    44    1
    49     1    45    1
    50     2    46    1
    51     4    47    1
    52     6    48    1
    53     6    49    1
    54     7    50    1
    55     9    51    1
    56    12    52    1
    57    15    53    1
    58    16    54    1
    59    18    55    1
    60    19    56    1
    61    24    57    1
    62    26    58    1
    63    28    59    1
    64    29    60    1
    65    30    61    1
    66    31    62    1
    67    32    63    1
    68    33    64    1
    69    34    65    1
    70    35    66    1
    71    36    67    1
    72    37    68    1
    73    38    69    1
    74    39    70    1
    75    40    71    1
    76    41    72    1
    77    42    73    1
