@<TRIPOS>MOLECULE
Pelargonidin 3-O-galactoside
 52 55 0 0 0
SMALL
GASTEIGER

@<TRIPOS>ATOM
      1 O           4.9470    1.7328   -2.7926 O.3     1  UNL1       -0.3924
      2 C           3.6364    1.7517   -2.2933 C.3     1  UNL1        0.0731
      3 C           3.6202    1.4398   -0.7853 C.3     1  UNL1        0.1140
      4 O           2.3015    1.5905   -0.2626 O.3     1  UNL1       -0.3313
      5 C           1.5836    0.3710   -0.2503 C.3     1  UNL1        0.2312
      6 O           0.2175    0.6600    0.0572 O.3     1  UNL1       -0.4515
      7 C          -0.8713   -0.2225   -0.0732 C.ar    1  UNL1        0.2288
      8 C          -0.7473   -1.4914   -0.6650 C.ar    1  UNL1        0.0093
      9 C          -1.8733   -2.3180   -0.8123 C.ar    1  UNL1        0.1241
     10 C          -1.8217   -3.6112   -1.3968 C.ar    1  UNL1        0.1366
     11 O          -0.6397   -4.1970   -1.8600 O.3     1  UNL1       -0.5057
     12 C          -3.0004   -4.3569   -1.5223 C.ar    1  UNL1        0.0225
     13 C          -4.2223   -3.8494   -1.0761 C.ar    1  UNL1        0.1293
     14 O          -5.3766   -4.6169   -1.2146 O.3     1  UNL1       -0.5063
     15 C          -4.2771   -2.5794   -0.4948 C.ar    1  UNL1        0.0847
     16 C          -3.1154   -1.8147   -0.3607 C.ar    1  UNL1        0.3708
     17 O          -3.1955   -0.6119    0.1954 O.2     1  UNL1       -0.1997
     18 C          -2.1456    0.1854    0.3679 C.ar    1  UNL1        0.4045
     19 C          -2.3696    1.5005    1.0094 C.ar    1  UNL1        0.0830
     20 C          -3.4991    2.2580    0.6578 C.ar    1  UNL1       -0.0420
     21 C          -3.7394    3.4943    1.2652 C.ar    1  UNL1       -0.0193
     22 C          -2.8643    3.9811    2.2408 C.ar    1  UNL1        0.1169
     23 O          -3.1155    5.2149    2.8368 O.3     1  UNL1       -0.5068
     24 C          -1.7473    3.2220    2.6127 C.ar    1  UNL1       -0.0193
     25 C          -1.5044    1.9857    2.0067 C.ar    1  UNL1       -0.0420
     26 C           2.1963   -0.5956    0.8042 C.3     1  UNL1        0.1454
     27 O           1.5959   -0.4326    2.0657 O.3     1  UNL1       -0.3829
     28 C           3.7302   -0.4195    0.9157 C.3     1  UNL1        0.1152
     29 O           4.3213   -1.6397    1.2824 O.3     1  UNL1       -0.3864
     30 C           4.3090    0.0877   -0.4169 C.3     1  UNL1        0.1120
     31 O           4.1066   -0.8716   -1.4270 O.3     1  UNL1       -0.3865
     32 H           5.3810    2.5706   -2.4840 H       1  UNL1        0.2095
     33 H           3.0324    1.0046   -2.8490 H       1  UNL1        0.0584
     34 H           3.1733    2.7485   -2.4746 H       1  UNL1        0.0584
     35 H           4.2261    2.2355   -0.2979 H       1  UNL1        0.0647
     36 H           1.6223   -0.0847   -1.2651 H       1  UNL1        0.1084
     37 H           0.2132   -1.8094   -1.0241 H       1  UNL1        0.0667
     38 H           0.2734   -3.7710   -1.7985 H       1  UNL1        0.2922
     39 H          -2.9649   -5.3429   -1.9691 H       1  UNL1        0.0691
     40 H          -6.2788   -4.2784   -0.9010 H       1  UNL1        0.2921
     41 H          -5.2237   -2.1845   -0.1467 H       1  UNL1        0.0749
     42 H          -4.1882    1.8978   -0.0964 H       1  UNL1        0.0628
     43 H          -4.6076    4.0739    0.9782 H       1  UNL1        0.0654
     44 H          -2.5011    5.5943    3.5477 H       1  UNL1        0.2921
     45 H          -1.0718    3.5845    3.3772 H       1  UNL1        0.0654
     46 H          -0.6561    1.4007    2.3354 H       1  UNL1        0.0628
     47 H           1.9889   -1.6342    0.4686 H       1  UNL1        0.0683
     48 H           1.7183    0.5156    2.3343 H       1  UNL1        0.2102
     49 H           3.9536    0.3452    1.6977 H       1  UNL1        0.0648
     50 H           5.2477   -1.4334    1.5743 H       1  UNL1        0.2100
     51 H           5.4027    0.2751   -0.2955 H       1  UNL1        0.0647
     52 H           4.8198   -1.5546   -1.3256 H       1  UNL1        0.2100
@<TRIPOS>UNITY_ATOM_ATTR
17 1
charge 1
@<TRIPOS>BOND
     1     1     2    1
     2     2     3    1
     3     3     4    1
     4     4     5    1
     5     5     6    1
     6     6     7    1
     7     7     8   ar
     8     8     9   ar
     9     9    10   ar
    10    10    11    1
    11    10    12   ar
    12    12    13   ar
    13    13    14    1
    14    13    15   ar
    15    15    16   ar
    16    16    17   ar
    17    17    18   ar
    18    18    19    1
    19    19    20   ar
    20    20    21   ar
    21    21    22   ar
    22    22    23    1
    23    22    24   ar
    24    24    25   ar
    25     5    26    1
    26    26    27    1
    27    26    28    1
    28    28    29    1
    29    28    30    1
    30    30    31    1
    31    30     3    1
    32    18     7   ar
    33    25    19   ar
    34    16     9   ar
    35     1    32    1
    36     2    33    1
    37     2    34    1
    38     3    35    1
    39     5    36    1
    40     8    37    1
    41    11    38    1
    42    12    39    1
    43    14    40    1
    44    15    41    1
    45    20    42    1
    46    21    43    1
    47    23    44    1
    48    24    45    1
    49    25    46    1
    50    26    47    1
    51    27    48    1
    52    28    49    1
    53    29    50    1
    54    30    51    1
    55    31    52    1
