@<TRIPOS>MOLECULE
Pelargonidin 3-O-sambubioside
 69 73 0 0 0
SMALL
GASTEIGER

@<TRIPOS>ATOM
      1 C           5.0584    1.5657    0.7041 C.3     1  UNL1        0.1069
      2 O           5.9089    1.7354    1.8088 O.3     1  UNL1       -0.3869
      3 C           3.6786    1.0505    1.1674 C.3     1  UNL1        0.0792
      4 O           3.6425   -0.3619    1.1538 O.3     1  UNL1       -0.3461
      5 C           3.6316   -0.8618   -0.1815 C.3     1  UNL1        0.1882
      6 O           2.3287   -0.7751   -0.7326 O.3     1  UNL1       -0.3366
      7 C           1.4266   -1.6649   -0.0917 C.3     1  UNL1        0.1519
      8 C           0.1812   -0.8755    0.3519 C.3     1  UNL1        0.2316
      9 O          -0.3555   -0.1138   -0.7399 O.3     1  UNL1       -0.4514
     10 C          -1.6023    0.5319   -0.7223 C.ar    1  UNL1        0.2288
     11 C          -2.4608    0.3240   -1.8034 C.ar    1  UNL1        0.0093
     12 C          -3.7622    0.8357   -1.7747 C.ar    1  UNL1        0.1241
     13 C          -4.1578    1.5825   -0.6453 C.ar    1  UNL1        0.3708
     14 C          -5.4561    2.0953   -0.5665 C.ar    1  UNL1        0.0847
     15 C          -6.3665    1.8713   -1.6076 C.ar    1  UNL1        0.1293
     16 O          -7.6620    2.3788   -1.5377 O.3     1  UNL1       -0.5063
     17 C          -5.9754    1.1327   -2.7293 C.ar    1  UNL1        0.0225
     18 C          -4.6766    0.6107   -2.8210 C.ar    1  UNL1        0.1366
     19 O          -4.2998   -0.1278   -3.9433 O.3     1  UNL1       -0.5057
     20 O          -3.2980    1.8127    0.3411 O.2     1  UNL1       -0.1997
     21 C          -2.0484    1.3530    0.3398 C.ar    1  UNL1        0.4045
     22 C          -1.1665    1.7763    1.4390 C.ar    1  UNL1        0.0830
     23 C          -1.5631    1.5814    2.7702 C.ar    1  UNL1       -0.0420
     24 C          -0.7476    2.0194    3.8182 C.ar    1  UNL1       -0.0193
     25 C           0.4590    2.6778    3.5434 C.ar    1  UNL1        0.1169
     26 O           1.2791    3.1199    4.5789 O.3     1  UNL1       -0.5068
     27 C           0.8431    2.8975    2.2168 C.ar    1  UNL1       -0.0193
     28 C           0.0360    2.4491    1.1671 C.ar    1  UNL1       -0.0420
     29 O          -0.7964   -1.7302    0.9291 O.3     1  UNL1       -0.3313
     30 C          -1.2635   -2.7081    0.0108 C.3     1  UNL1        0.1140
     31 C          -2.3739   -3.5114    0.7077 C.3     1  UNL1        0.0731
     32 O          -3.0319   -4.3609   -0.1937 O.3     1  UNL1       -0.3924
     33 C          -0.1027   -3.6262   -0.4503 C.3     1  UNL1        0.1120
     34 O          -0.5437   -4.5968   -1.3683 O.3     1  UNL1       -0.3865
     35 C           1.0218   -2.7798   -1.0691 C.3     1  UNL1        0.1155
     36 O           2.1235   -3.6069   -1.3420 O.3     1  UNL1       -0.3863
     37 C           4.6336   -0.1270   -1.1199 C.3     1  UNL1        0.1341
     38 O           5.2374   -1.0374   -2.0023 O.3     1  UNL1       -0.3841
     39 C           5.7129    0.5788   -0.2892 C.3     1  UNL1        0.1137
     40 O           6.5923    1.2629   -1.1437 O.3     1  UNL1       -0.3864
     41 H           4.9090    2.5461    0.1918 H       1  UNL1        0.0643
     42 H           5.6334    2.5775    2.2571 H       1  UNL1        0.2100
     43 H           3.4682    1.4008    2.2000 H       1  UNL1        0.0587
     44 H           2.8741    1.4722    0.5221 H       1  UNL1        0.0587
     45 H           3.9562   -1.9275   -0.1333 H       1  UNL1        0.0937
     46 H           1.8477   -2.1461    0.8264 H       1  UNL1        0.0687
     47 H           0.5263   -0.1828    1.1428 H       1  UNL1        0.1084
     48 H          -2.1217   -0.2809   -2.6358 H       1  UNL1        0.0667
     49 H          -5.7558    2.6694    0.3015 H       1  UNL1        0.0749
     50 H          -7.9774    2.9180   -0.7397 H       1  UNL1        0.2921
     51 H          -6.6840    0.9633   -3.5304 H       1  UNL1        0.0691
     52 H          -4.9443   -0.3012   -4.7059 H       1  UNL1        0.2922
     53 H          -2.4971    1.0813    2.9957 H       1  UNL1        0.0628
     54 H          -1.0566    1.8519    4.8421 H       1  UNL1        0.0654
     55 H           1.0290    2.9764    5.5503 H       1  UNL1        0.2921
     56 H           1.7675    3.4172    1.9994 H       1  UNL1        0.0654
     57 H           0.3443    2.6306    0.1447 H       1  UNL1        0.0628
     58 H          -1.7211   -2.2180   -0.8758 H       1  UNL1        0.0647
     59 H          -1.9404   -4.1223    1.5281 H       1  UNL1        0.0584
     60 H          -3.1085   -2.8115    1.1686 H       1  UNL1        0.0584
     61 H          -3.6183   -3.7853   -0.7510 H       1  UNL1        0.2095
     62 H           0.3045   -4.1561    0.4399 H       1  UNL1        0.0647
     63 H          -0.9276   -4.1199   -2.1504 H       1  UNL1        0.2100
     64 H           0.6466   -2.3199   -2.0154 H       1  UNL1        0.0648
     65 H           2.6568   -3.1540   -2.0463 H       1  UNL1        0.2100
     66 H           4.0938    0.6540   -1.7078 H       1  UNL1        0.0671
     67 H           4.5421   -1.2955   -2.6624 H       1  UNL1        0.2101
     68 H           6.2741   -0.2044    0.2756 H       1  UNL1        0.0647
     69 H           7.3947    1.4893   -0.6045 H       1  UNL1        0.2100
@<TRIPOS>UNITY_ATOM_ATTR
20 1
charge 1
@<TRIPOS>BOND
     1     1     2    1
     2     1     3    1
     3     3     4    1
     4     4     5    1
     5     5     6    1
     6     6     7    1
     7     7     8    1
     8     8     9    1
     9     9    10    1
    10    10    11   ar
    11    11    12   ar
    12    12    13   ar
    13    13    14   ar
    14    14    15   ar
    15    15    16    1
    16    15    17   ar
    17    17    18   ar
    18    18    19    1
    19    13    20   ar
    20    20    21   ar
    21    21    22    1
    22    22    23   ar
    23    23    24   ar
    24    24    25   ar
    25    25    26    1
    26    25    27   ar
    27    27    28   ar
    28     8    29    1
    29    29    30    1
    30    30    31    1
    31    31    32    1
    32    30    33    1
    33    33    34    1
    34    33    35    1
    35    35    36    1
    36     5    37    1
    37    37    38    1
    38    37    39    1
    39    39    40    1
    40    39     1    1
    41    35     7    1
    42    21    10   ar
    43    28    22   ar
    44    18    12   ar
    45     1    41    1
    46     2    42    1
    47     3    43    1
    48     3    44    1
    49     5    45    1
    50     7    46    1
    51     8    47    1
    52    11    48    1
    53    14    49    1
    54    16    50    1
    55    17    51    1
    56    19    52    1
    57    23    53    1
    58    24    54    1
    59    26    55    1
    60    27    56    1
    61    28    57    1
    62    30    58    1
    63    31    59    1
    64    31    60    1
    65    32    61    1
    66    33    62    1
    67    34    63    1
    68    35    64    1
    69    36    65    1
    70    37    66    1
    71    38    67    1
    72    39    68    1
    73    40    69    1
