@<TRIPOS>MOLECULE
Delphinidin 3-O-sambubioside
 71 75 0 0 0
SMALL
GASTEIGER

@<TRIPOS>ATOM
      1 O           2.2296   -4.4039   -2.4190 O.3     1  UNL1       -0.3924
      2 C           1.7347   -4.7388   -1.1521 C.3     1  UNL1        0.0731
      3 C           1.6825   -3.4985   -0.2512 C.3     1  UNL1        0.1140
      4 O           0.8147   -2.5431   -0.8458 O.3     1  UNL1       -0.3313
      5 C           0.8460   -1.3379   -0.1062 C.3     1  UNL1        0.2316
      6 O          -0.2463   -0.5084   -0.4934 O.3     1  UNL1       -0.4514
      7 C          -1.6041   -0.7778   -0.2592 C.ar    1  UNL1        0.2288
      8 C          -2.0414   -1.9848    0.3099 C.ar    1  UNL1        0.0093
      9 C          -3.4079   -2.1951    0.5565 C.ar    1  UNL1        0.1241
     10 C          -3.9235   -3.3898    1.1246 C.ar    1  UNL1        0.1366
     11 O          -3.1212   -4.4790    1.4779 O.3     1  UNL1       -0.5057
     12 C          -5.3009   -3.5061    1.3487 C.ar    1  UNL1        0.0225
     13 C          -6.1727   -2.4665    1.0183 C.ar    1  UNL1        0.1293
     14 O          -7.5379   -2.6140    1.2537 O.3     1  UNL1       -0.5063
     15 C          -5.6704   -1.2899    0.4551 C.ar    1  UNL1        0.0847
     16 C          -4.2999   -1.1485    0.2227 C.ar    1  UNL1        0.3708
     17 O          -3.8490   -0.0201   -0.3132 O.2     1  UNL1       -0.1997
     18 C          -2.5643    0.2022   -0.5741 C.ar    1  UNL1        0.4047
     19 C          -2.1831    1.5086   -1.1591 C.ar    1  UNL1        0.0899
     20 C          -1.2446    1.6002   -2.2001 C.ar    1  UNL1       -0.0000
     21 C          -0.8775    2.8419   -2.7310 C.ar    1  UNL1        0.1628
     22 O           0.0720    2.8556   -3.7548 O.3     1  UNL1       -0.5032
     23 C          -1.4725    4.0215   -2.2240 C.ar    1  UNL1        0.2006
     24 O          -1.1438    5.2927   -2.7013 O.3     1  UNL1       -0.5009
     25 C          -2.4306    3.9283   -1.2046 C.ar    1  UNL1        0.1628
     26 O          -3.0235    5.0892   -0.7102 O.3     1  UNL1       -0.5032
     27 C          -2.7874    2.6790   -0.6821 C.ar    1  UNL1       -0.0000
     28 C           2.1609   -0.5855   -0.3942 C.3     1  UNL1        0.1519
     29 O           2.4767    0.2101    0.7382 O.3     1  UNL1       -0.3366
     30 C           2.9723    1.4843    0.3543 C.3     1  UNL1        0.1882
     31 O           1.9390    2.3062   -0.1761 O.3     1  UNL1       -0.3461
     32 C           0.9255    2.5468    0.7854 C.3     1  UNL1        0.0792
     33 C           1.4689    3.3288    1.9866 C.3     1  UNL1        0.1069
     34 O           1.9037    4.5935    1.5536 O.3     1  UNL1       -0.3869
     35 C           2.6272    2.5439    2.6249 C.3     1  UNL1        0.1137
     36 O           3.2250    3.3217    3.6305 O.3     1  UNL1       -0.3864
     37 C           3.6649    2.1669    1.5496 C.3     1  UNL1        0.1341
     38 O           4.6278    1.2958    2.0859 O.3     1  UNL1       -0.3841
     39 C           3.3201   -1.5723   -0.6888 C.3     1  UNL1        0.1155
     40 O           3.4045   -1.7829   -2.0760 O.3     1  UNL1       -0.3863
     41 C           3.1107   -2.9247    0.0327 C.3     1  UNL1        0.1120
     42 O           3.2661   -2.7452    1.4186 O.3     1  UNL1       -0.3865
     43 H           2.2432   -5.2477   -2.9411 H       1  UNL1        0.2095
     44 H           0.7073   -5.1556   -1.2534 H       1  UNL1        0.0584
     45 H           2.3802   -5.5161   -0.6841 H       1  UNL1        0.0584
     46 H           1.2289   -3.8422    0.7080 H       1  UNL1        0.0647
     47 H           0.7564   -1.5336    0.9903 H       1  UNL1        0.1084
     48 H          -1.3126   -2.7343    0.5619 H       1  UNL1        0.0667
     49 H          -2.1210   -4.5198    1.3474 H       1  UNL1        0.2922
     50 H          -5.6975   -4.4156    1.7830 H       1  UNL1        0.0691
     51 H          -8.1974   -1.8793    1.0254 H       1  UNL1        0.2921
     52 H          -6.3452   -0.4828    0.1974 H       1  UNL1        0.0749
     53 H          -0.8027    0.7043   -2.6181 H       1  UNL1        0.0664
     54 H           0.4003    3.6944   -4.2108 H       1  UNL1        0.2923
     55 H          -0.4600    5.4667   -3.4235 H       1  UNL1        0.2924
     56 H          -3.7175    5.0582    0.0276 H       1  UNL1        0.2923
     57 H          -3.5217    2.6247    0.1127 H       1  UNL1        0.0664
     58 H           1.9906    0.0287   -1.3140 H       1  UNL1        0.0687
     59 H           3.7559    1.3688   -0.4308 H       1  UNL1        0.0937
     60 H           0.1262    3.1486    0.3053 H       1  UNL1        0.0587
     61 H           0.4478    1.5988    1.1185 H       1  UNL1        0.0587
     62 H           0.6457    3.4409    2.7310 H       1  UNL1        0.0643
     63 H           1.8814    5.1934    2.3443 H       1  UNL1        0.2100
     64 H           2.2054    1.6108    3.0710 H       1  UNL1        0.0647
     65 H           3.6698    2.6932    4.2571 H       1  UNL1        0.2100
     66 H           4.1585    3.0954    1.1742 H       1  UNL1        0.0671
     67 H           5.3015    1.8588    2.5492 H       1  UNL1        0.2101
     68 H           4.2769   -1.1167   -0.3393 H       1  UNL1        0.0648
     69 H           4.3014   -2.1692   -2.2561 H       1  UNL1        0.2100
     70 H           3.8899   -3.6418   -0.3200 H       1  UNL1        0.0647
     71 H           4.2380   -2.6358    1.5905 H       1  UNL1        0.2100
@<TRIPOS>UNITY_ATOM_ATTR
17 1
charge 1
@<TRIPOS>BOND
     1     1     2    1
     2     2     3    1
     3     3     4    1
     4     4     5    1
     5     5     6    1
     6     6     7    1
     7     7     8   ar
     8     8     9   ar
     9     9    10   ar
    10    10    11    1
    11    10    12   ar
    12    12    13   ar
    13    13    14    1
    14    13    15   ar
    15    15    16   ar
    16    16    17   ar
    17    17    18   ar
    18    18    19    1
    19    19    20   ar
    20    20    21   ar
    21    21    22    1
    22    21    23   ar
    23    23    24    1
    24    23    25   ar
    25    25    26    1
    26    25    27   ar
    27     5    28    1
    28    28    29    1
    29    29    30    1
    30    30    31    1
    31    31    32    1
    32    32    33    1
    33    33    34    1
    34    33    35    1
    35    35    36    1
    36    35    37    1
    37    37    38    1
    38    28    39    1
    39    39    40    1
    40    39    41    1
    41    41    42    1
    42    41     3    1
    43    18     7   ar
    44    27    19   ar
    45    37    30    1
    46    16     9   ar
    47     1    43    1
    48     2    44    1
    49     2    45    1
    50     3    46    1
    51     5    47    1
    52     8    48    1
    53    11    49    1
    54    12    50    1
    55    14    51    1
    56    15    52    1
    57    20    53    1
    58    22    54    1
    59    24    55    1
    60    26    56    1
    61    27    57    1
    62    28    58    1
    63    30    59    1
    64    32    60    1
    65    32    61    1
    66    33    62    1
    67    34    63    1
    68    35    64    1
    69    36    65    1
    70    37    66    1
    71    38    67    1
    72    39    68    1
    73    40    69    1
    74    41    70    1
    75    42    71    1
