@<TRIPOS>MOLECULE
Cyanidin 3-O-xylosyl-rutinoside
 90 95 0 0 0
SMALL
GASTEIGER

@<TRIPOS>ATOM
      1 C           6.1701   -0.8468    2.8836 C.3     1  UNL1       -0.0361
      2 C           5.4399    0.0660    1.8918 C.3     1  UNL1        0.0873
      3 O           4.5444   -0.7147    1.1010 O.3     1  UNL1       -0.3431
      4 C           4.8803   -0.8530   -0.2745 C.3     1  UNL1        0.1879
      5 O           4.4084    0.2672   -1.0099 O.3     1  UNL1       -0.3461
      6 C           3.1133    0.0552   -1.5462 C.3     1  UNL1        0.0796
      7 C           2.0043    0.2129   -0.4887 C.3     1  UNL1        0.1144
      8 O           0.7575   -0.0341   -1.1203 O.3     1  UNL1       -0.3313
      9 C          -0.3025    0.2245   -0.2212 C.3     1  UNL1        0.2316
     10 O          -1.5043   -0.3475   -0.7287 O.3     1  UNL1       -0.4514
     11 C          -1.7499   -1.7173   -0.9091 C.ar    1  UNL1        0.2288
     12 C          -0.7767   -2.6944   -0.6468 C.ar    1  UNL1        0.0093
     13 C          -1.0873   -4.0487   -0.8133 C.ar    1  UNL1        0.1241
     14 C          -0.1455   -5.0660   -0.5659 C.ar    1  UNL1        0.1366
     15 O           1.1471   -4.7475   -0.1477 O.3     1  UNL1       -0.5057
     16 C          -0.5134   -6.4080   -0.7428 C.ar    1  UNL1        0.0225
     17 C          -1.8058   -6.7411   -1.1611 C.ar    1  UNL1        0.1293
     18 O          -2.1487   -8.0809   -1.3294 O.3     1  UNL1       -0.5063
     19 C          -2.7429   -5.7293   -1.4071 C.ar    1  UNL1        0.0847
     20 C          -2.3903   -4.3871   -1.2363 C.ar    1  UNL1        0.3708
     21 O          -3.2879   -3.4364   -1.4731 O.2     1  UNL1       -0.1997
     22 C          -3.0247   -2.1380   -1.3399 C.ar    1  UNL1        0.4046
     23 C          -4.1088   -1.1675   -1.6138 C.ar    1  UNL1        0.0865
     24 C          -5.4021   -1.4230   -1.1328 C.ar    1  UNL1       -0.0418
     25 C          -6.4286   -0.4973   -1.3385 C.ar    1  UNL1       -0.0157
     26 C          -6.1784    0.6906   -2.0378 C.ar    1  UNL1        0.1583
     27 O          -7.1957    1.6229   -2.2327 O.3     1  UNL1       -0.5033
     28 C          -4.8983    0.9427   -2.5462 C.ar    1  UNL1        0.1591
     29 O          -4.6537    2.1218   -3.2477 O.3     1  UNL1       -0.5033
     30 C          -3.8705    0.0106   -2.3453 C.ar    1  UNL1       -0.0003
     31 C          -0.5033    1.7467   -0.0847 C.3     1  UNL1        0.1519
     32 O          -1.1150    2.0115    1.1697 O.3     1  UNL1       -0.3366
     33 C          -1.9521    3.1593    1.1185 C.3     1  UNL1        0.1882
     34 O          -1.8315    3.8767    2.3426 O.3     1  UNL1       -0.3461
     35 C          -2.7061    3.3719    3.3312 C.3     1  UNL1        0.0792
     36 C          -4.1703    3.7142    2.9888 C.3     1  UNL1        0.1069
     37 O          -4.4935    4.9679    3.5330 O.3     1  UNL1       -0.3869
     38 C          -4.3913    3.7347    1.4553 C.3     1  UNL1        0.1137
     39 O          -5.7132    3.3759    1.1449 O.3     1  UNL1       -0.3864
     40 C          -3.4222    2.7698    0.7607 C.3     1  UNL1        0.1341
     41 O          -3.7089    1.4562    1.1764 O.3     1  UNL1       -0.3841
     42 C           0.8538    2.5021   -0.1927 C.3     1  UNL1        0.1155
     43 O           1.0370    3.0323   -1.4838 O.3     1  UNL1       -0.3863
     44 C           2.0590    1.6155    0.2047 C.3     1  UNL1        0.1120
     45 O           2.0621    1.4319    1.5989 O.3     1  UNL1       -0.3865
     46 C           6.3900   -1.0312   -0.5028 C.3     1  UNL1        0.1341
     47 O           6.6314   -1.2519   -1.8697 O.3     1  UNL1       -0.3841
     48 C           7.1977    0.1825    0.0240 C.3     1  UNL1        0.1140
     49 O           7.5522    1.0480   -1.0283 O.3     1  UNL1       -0.3864
     50 C           6.4263    0.9717    1.1097 C.3     1  UNL1        0.1095
     51 O           5.7062    2.0399    0.5433 O.3     1  UNL1       -0.3866
     52 H           6.8549   -1.5443    2.3608 H       1  UNL1        0.0255
     53 H           5.4302   -1.4442    3.4576 H       1  UNL1        0.0255
     54 H           6.7595   -0.2406    3.6041 H       1  UNL1        0.0255
     55 H           4.8108    0.7425    2.5113 H       1  UNL1        0.0621
     56 H           4.4190   -1.8071   -0.6222 H       1  UNL1        0.0937
     57 H           2.9506    0.8155   -2.3388 H       1  UNL1        0.0587
     58 H           3.0285   -0.9297   -2.0598 H       1  UNL1        0.0587
     59 H           2.1664   -0.5864    0.2688 H       1  UNL1        0.0647
     60 H          -0.1048   -0.2234    0.7831 H       1  UNL1        0.1084
     61 H           0.2086   -2.4075   -0.3067 H       1  UNL1        0.0667
     62 H           1.8386   -5.4653    0.0347 H       1  UNL1        0.2922
     63 H           0.2061   -7.1951   -0.5545 H       1  UNL1        0.0691
     64 H          -3.0760   -8.3564   -1.6313 H       1  UNL1        0.2921
     65 H          -3.7442   -5.9851   -1.7311 H       1  UNL1        0.0749
     66 H          -5.6112   -2.3279   -0.5752 H       1  UNL1        0.0628
     67 H          -7.4172   -0.7009   -0.9471 H       1  UNL1        0.0655
     68 H          -8.1313    1.4689   -1.8752 H       1  UNL1        0.2923
     69 H          -3.7361    2.3362   -3.6204 H       1  UNL1        0.2923
     70 H          -2.8912    0.2071   -2.7631 H       1  UNL1        0.0664
     71 H          -1.1572    2.0620   -0.9357 H       1  UNL1        0.0687
     72 H          -1.6131    3.8809    0.3370 H       1  UNL1        0.0937
     73 H          -2.4352    3.8210    4.3105 H       1  UNL1        0.0587
     74 H          -2.5760    2.2714    3.4486 H       1  UNL1        0.0587
     75 H          -4.8130    2.9286    3.4524 H       1  UNL1        0.0643
     76 H          -5.4842    5.0176    3.5707 H       1  UNL1        0.2100
     77 H          -4.1812    4.7587    1.0624 H       1  UNL1        0.0647
     78 H          -6.2798    4.1649    1.3491 H       1  UNL1        0.2100
     79 H          -3.5679    2.8612   -0.3428 H       1  UNL1        0.0671
     80 H          -3.4753    0.8553    0.4246 H       1  UNL1        0.2101
     81 H           0.8332    3.3731    0.4985 H       1  UNL1        0.0648
     82 H           0.9722    2.2879   -2.1358 H       1  UNL1        0.2100
     83 H           2.9909    2.1551   -0.0860 H       1  UNL1        0.0647
     84 H           2.4161    2.2671    2.0030 H       1  UNL1        0.2100
     85 H           6.6970   -1.9408    0.0649 H       1  UNL1        0.0671
     86 H           7.5357   -1.6563   -1.9387 H       1  UNL1        0.2101
     87 H           8.1264   -0.2148    0.5010 H       1  UNL1        0.0648
     88 H           8.3920    0.6983   -1.4264 H       1  UNL1        0.2100
     89 H           7.1669    1.3872    1.8355 H       1  UNL1        0.0646
     90 H           6.3340    2.8039    0.4523 H       1  UNL1        0.2100
@<TRIPOS>UNITY_ATOM_ATTR
21 1
charge 1
@<TRIPOS>BOND
     1     1     2    1
     2     2     3    1
     3     3     4    1
     4     4     5    1
     5     5     6    1
     6     6     7    1
     7     7     8    1
     8     8     9    1
     9     9    10    1
    10    10    11    1
    11    11    12   ar
    12    12    13   ar
    13    13    14   ar
    14    14    15    1
    15    14    16   ar
    16    16    17   ar
    17    17    18    1
    18    17    19   ar
    19    19    20   ar
    20    20    21   ar
    21    21    22   ar
    22    22    23    1
    23    23    24   ar
    24    24    25   ar
    25    25    26   ar
    26    26    27    1
    27    26    28   ar
    28    28    29    1
    29    28    30   ar
    30     9    31    1
    31    31    32    1
    32    32    33    1
    33    33    34    1
    34    34    35    1
    35    35    36    1
    36    36    37    1
    37    36    38    1
    38    38    39    1
    39    38    40    1
    40    40    41    1
    41    31    42    1
    42    42    43    1
    43    42    44    1
    44    44    45    1
    45     4    46    1
    46    46    47    1
    47    46    48    1
    48    48    49    1
    49    48    50    1
    50    50    51    1
    51    50     2    1
    52    44     7    1
    53    22    11   ar
    54    30    23   ar
    55    40    33    1
    56    20    13   ar
    57     1    52    1
    58     1    53    1
    59     1    54    1
    60     2    55    1
    61     4    56    1
    62     6    57    1
    63     6    58    1
    64     7    59    1
    65     9    60    1
    66    12    61    1
    67    15    62    1
    68    16    63    1
    69    18    64    1
    70    19    65    1
    71    24    66    1
    72    25    67    1
    73    27    68    1
    74    29    69    1
    75    30    70    1
    76    31    71    1
    77    33    72    1
    78    35    73    1
    79    35    74    1
    80    36    75    1
    81    37    76    1
    82    38    77    1
    83    39    78    1
    84    40    79    1
    85    41    80    1
    86    42    81    1
    87    43    82    1
    88    44    83    1
    89    45    84    1
    90    46    85    1
    91    47    86    1
    92    48    87    1
    93    49    88    1
    94    50    89    1
    95    51    90    1
