@<TRIPOS>MOLECULE
Vitisin A
 65 69 0 0 0
SMALL
GASTEIGER

@<TRIPOS>ATOM
      1 C           2.3297   -3.9082   -3.2043 C.3     1  UNL1        0.0790
      2 O           2.7512   -4.1858   -1.8728 O.3     1  UNL1       -0.4913
      3 C           2.7020   -3.2646   -0.8143 C.ar    1  UNL1        0.1658
      4 C           2.2501   -1.9449   -0.9930 C.ar    1  UNL1        0.0002
      5 C           2.1905   -1.0567    0.0921 C.ar    1  UNL1        0.0900
      6 C           2.6298   -1.4838    1.3530 C.ar    1  UNL1        0.0002
      7 C           3.0895   -2.7995    1.5468 C.ar    1  UNL1        0.1658
      8 O           3.5189   -3.2575    2.8029 O.3     1  UNL1       -0.4913
      9 C           3.5332   -2.4703    3.9894 C.3     1  UNL1        0.0790
     10 C           3.1186   -3.6865    0.4557 C.ar    1  UNL1        0.2011
     11 O           3.5629   -4.9999    0.6168 O.3     1  UNL1       -0.5009
     12 C           1.6847    0.3263   -0.0718 C.ar    1  UNL1        0.4053
     13 O           2.3218    1.3070    0.5692 O.2     1  UNL1       -0.1996
     14 C           1.9651    2.5830    0.4771 C.ar    1  UNL1        0.3714
     15 C           0.8856    2.9532   -0.3409 C.ar    1  UNL1        0.1322
     16 C           0.5134    4.2982   -0.4612 C.ar    1  UNL1        0.1490
     17 O          -0.5592    4.6448   -1.2925 O.3     1  UNL1       -0.4478
     18 C          -1.2581    3.6806   -2.0396 C.2     1  UNL1        0.2125
     19 C          -0.9145    2.3821   -1.9484 C.2     1  UNL1       -0.0002
     20 C           0.1798    1.9676   -1.0369 C.ar    1  UNL1        0.0496
     21 C           0.5462    0.6206   -0.8609 C.ar    1  UNL1        0.2362
     22 O          -0.1967   -0.4093   -1.4560 O.3     1  UNL1       -0.4511
     23 C          -1.4371   -0.9026   -0.9352 C.3     1  UNL1        0.2313
     24 O          -2.3056    0.1716   -0.6311 O.3     1  UNL1       -0.3313
     25 C          -3.6387   -0.2967   -0.4926 C.3     1  UNL1        0.1140
     26 C          -4.5193    0.8735   -0.0381 C.3     1  UNL1        0.0731
     27 O          -4.0733    1.3721    1.1928 O.3     1  UNL1       -0.3924
     28 C          -3.7514   -1.5195    0.4800 C.3     1  UNL1        0.1120
     29 O          -4.0291   -2.6874   -0.2503 O.3     1  UNL1       -0.3865
     30 C          -2.4404   -1.7286    1.2676 C.3     1  UNL1        0.1152
     31 O          -2.2726   -0.6846    2.1942 O.3     1  UNL1       -0.3864
     32 C          -1.2108   -1.7698    0.3253 C.3     1  UNL1        0.1454
     33 O          -0.9404   -3.0910   -0.0697 O.3     1  UNL1       -0.3829
     34 C          -2.3566    4.1276   -2.9137 C.2     1  UNL1        0.3725
     35 O          -2.6642    5.4825   -2.9857 O.3     1  UNL1       -0.4750
     36 O          -3.0227    3.3003   -3.5936 O.2     1  UNL1       -0.2417
     37 C           1.2148    5.2788    0.2476 C.ar    1  UNL1        0.0234
     38 C           2.2904    4.9169    1.0709 C.ar    1  UNL1        0.1293
     39 O           2.9801    5.9043    1.7708 O.3     1  UNL1       -0.5063
     40 C           2.6657    3.5675    1.1834 C.ar    1  UNL1        0.0847
     41 H           2.9454   -3.0919   -3.6375 H       1  UNL1        0.0660
     42 H           2.4618   -4.8188   -3.8235 H       1  UNL1        0.0660
     43 H           1.2558   -3.6245   -3.2134 H       1  UNL1        0.0660
     44 H           1.9580   -1.6018   -1.9754 H       1  UNL1        0.0664
     45 H           2.5890   -0.7923    2.1842 H       1  UNL1        0.0664
     46 H           2.5038   -2.1359    4.2382 H       1  UNL1        0.0660
     47 H           4.2003   -1.5923    3.8574 H       1  UNL1        0.0660
     48 H           3.9186   -3.0858    4.8278 H       1  UNL1        0.0660
     49 H           3.8753   -5.3605    1.5103 H       1  UNL1        0.2924
     50 H          -1.4258    1.6382   -2.5463 H       1  UNL1        0.0664
     51 H          -1.8776   -1.5381   -1.7400 H       1  UNL1        0.1084
     52 H          -4.0195   -0.5888   -1.4991 H       1  UNL1        0.0647
     53 H          -4.4716    1.6802   -0.8042 H       1  UNL1        0.0584
     54 H          -5.5770    0.5366    0.0480 H       1  UNL1        0.0584
     55 H          -4.6822    2.1210    1.4232 H       1  UNL1        0.2095
     56 H          -4.5718   -1.3643    1.2207 H       1  UNL1        0.0647
     57 H          -4.9837   -2.6367   -0.5192 H       1  UNL1        0.2100
     58 H          -2.5009   -2.6943    1.8239 H       1  UNL1        0.0648
     59 H          -2.8976   -0.8603    2.9456 H       1  UNL1        0.2100
     60 H          -0.3418   -1.3706    0.8922 H       1  UNL1        0.0683
     61 H          -0.4639   -3.5269    0.6847 H       1  UNL1        0.2102
     62 H          -3.4160    5.8141   -3.5782 H       1  UNL1        0.2955
     63 H           0.9270    6.3187    0.1581 H       1  UNL1        0.0691
     64 H           3.7622    5.6773    2.3738 H       1  UNL1        0.2921
     65 H           3.4987    3.2862    1.8155 H       1  UNL1        0.0749
@<TRIPOS>UNITY_ATOM_ATTR
13 1
charge 1
@<TRIPOS>BOND
     1     1     2    1
     2     2     3    1
     3     3     4   ar
     4     4     5   ar
     5     5     6   ar
     6     6     7   ar
     7     7     8    1
     8     8     9    1
     9     7    10   ar
    10    10    11    1
    11     5    12    1
    12    12    13   ar
    13    13    14   ar
    14    14    15   ar
    15    15    16   ar
    16    16    17    1
    17    17    18    1
    18    18    19    2
    19    19    20    1
    20    20    21   ar
    21    21    22    1
    22    22    23    1
    23    23    24    1
    24    24    25    1
    25    25    26    1
    26    26    27    1
    27    25    28    1
    28    28    29    1
    29    28    30    1
    30    30    31    1
    31    30    32    1
    32    32    33    1
    33    18    34    1
    34    34    35    1
    35    34    36    2
    36    16    37   ar
    37    37    38   ar
    38    38    39    1
    39    38    40   ar
    40    10     3   ar
    41    21    12   ar
    42    32    23    1
    43    40    14   ar
    44    20    15   ar
    45     1    41    1
    46     1    42    1
    47     1    43    1
    48     4    44    1
    49     6    45    1
    50     9    46    1
    51     9    47    1
    52     9    48    1
    53    11    49    1
    54    19    50    1
    55    23    51    1
    56    25    52    1
    57    26    53    1
    58    26    54    1
    59    27    55    1
    60    28    56    1
    61    29    57    1
    62    30    58    1
    63    31    59    1
    64    32    60    1
    65    33    61    1
    66    35    62    1
    67    37    63    1
    68    39    64    1
    69    40    65    1
