@<TRIPOS>MOLECULE
Delphinidin 3-O-(6''-p-coumaroyl-glucoside)
 71 75 0 0 0
SMALL
GASTEIGER

@<TRIPOS>ATOM
      1 O           2.6073    1.0569   -2.2398 O.3     1  UNL1       -0.3864
      2 C           1.2659    1.2480   -1.8675 C.3     1  UNL1        0.1130
      3 C           1.1325    1.1680   -0.3279 C.3     1  UNL1        0.1250
      4 C           1.9145    2.2990    0.3625 C.3     1  UNL1        0.1215
      5 O           3.3212    2.1652    0.1615 O.3     1  UNL1       -0.4589
      6 C           4.1101    1.2211    0.8276 C.2     1  UNL1        0.3320
      7 O           3.6069    0.4764    1.7141 O.2     1  UNL1       -0.2456
      8 C           5.5366    1.1184    0.4796 C.2     1  UNL1        0.0231
      9 C           6.3510    0.2199    1.0515 C.2     1  UNL1       -0.0478
     10 C           7.7890    0.0786    0.7140 C.ar    1  UNL1       -0.0246
     11 C           8.4374   -1.1287    1.0256 C.ar    1  UNL1       -0.0511
     12 C           9.7935   -1.3041    0.7344 C.ar    1  UNL1       -0.0196
     13 C          10.5244   -0.2701    0.1370 C.ar    1  UNL1        0.1169
     14 O          11.8759   -0.4334   -0.1582 O.3     1  UNL1       -0.5068
     15 C           9.8933    0.9401   -0.1628 C.ar    1  UNL1       -0.0196
     16 C           8.5368    1.1195    0.1260 C.ar    1  UNL1       -0.0511
     17 O          -0.2286    1.2905    0.0501 O.3     1  UNL1       -0.3302
     18 C          -0.9851    0.1868   -0.4131 C.3     1  UNL1        0.2313
     19 O          -2.3069    0.3216    0.1148 O.3     1  UNL1       -0.4515
     20 C          -3.2895   -0.6822    0.2108 C.ar    1  UNL1        0.2288
     21 C          -2.9982   -2.0482    0.0499 C.ar    1  UNL1        0.0093
     22 C          -4.0072   -3.0118    0.2147 C.ar    1  UNL1        0.1241
     23 C          -3.7867   -4.4069    0.0666 C.ar    1  UNL1        0.1366
     24 O          -2.5484   -4.9553   -0.2810 O.3     1  UNL1       -0.5057
     25 C          -4.8485   -5.2968    0.2709 C.ar    1  UNL1        0.0225
     26 C          -6.1220   -4.8290    0.6131 C.ar    1  UNL1        0.1293
     27 O          -7.1748   -5.7190    0.8145 O.3     1  UNL1       -0.5063
     28 C          -6.3434   -3.4591    0.7536 C.ar    1  UNL1        0.0847
     29 C          -5.2999   -2.5509    0.5569 C.ar    1  UNL1        0.3708
     30 O          -5.5405   -1.2527    0.6937 O.2     1  UNL1       -0.1997
     31 C          -4.6130   -0.3156    0.5238 C.ar    1  UNL1        0.4047
     32 C          -5.0149    1.1002    0.6845 C.ar    1  UNL1        0.0899
     33 C          -4.5939    2.0857   -0.2249 C.ar    1  UNL1       -0.0000
     34 C          -4.9987    3.4179   -0.0674 C.ar    1  UNL1        0.1628
     35 O          -4.5707    4.3940   -0.9657 O.3     1  UNL1       -0.5032
     36 C          -5.8411    3.7740    0.9935 C.ar    1  UNL1        0.2006
     37 O          -6.2309    5.1061    1.1365 O.3     1  UNL1       -0.5009
     38 C          -6.2856    2.7910    1.8939 C.ar    1  UNL1        0.1628
     39 O          -7.1310    3.1395    2.9462 O.3     1  UNL1       -0.5032
     40 C          -5.8772    1.4598    1.7313 C.ar    1  UNL1       -0.0000
     41 C          -1.0353    0.2072   -1.9554 C.3     1  UNL1        0.1454
     42 O          -1.7666   -0.8939   -2.4278 O.3     1  UNL1       -0.3829
     43 C           0.3928    0.1607   -2.5223 C.3     1  UNL1        0.1152
     44 O           0.3443    0.3579   -3.9124 O.3     1  UNL1       -0.3864
     45 H           2.7350    1.5161   -3.1106 H       1  UNL1        0.2100
     46 H           0.9087    2.2521   -2.2021 H       1  UNL1        0.0647
     47 H           1.5471    0.1986    0.0342 H       1  UNL1        0.0658
     48 H           1.6916    2.3054    1.4522 H       1  UNL1        0.0725
     49 H           1.5882    3.2790   -0.0466 H       1  UNL1        0.0725
     50 H           5.9024    1.7856   -0.2881 H       1  UNL1        0.0689
     51 H           5.9388   -0.4770    1.7724 H       1  UNL1        0.0626
     52 H           7.8907   -1.9418    1.4880 H       1  UNL1        0.0625
     53 H          10.2748   -2.2436    0.9746 H       1  UNL1        0.0654
     54 H          12.3622   -1.2982    0.0482 H       1  UNL1        0.2921
     55 H          10.4571    1.7466   -0.6143 H       1  UNL1        0.0654
     56 H           8.0914    2.0800   -0.0918 H       1  UNL1        0.0625
     57 H          -0.5284   -0.7556   -0.0375 H       1  UNL1        0.1084
     58 H          -1.9937   -2.3466   -0.1828 H       1  UNL1        0.0667
     59 H          -1.7177   -4.4166   -0.4776 H       1  UNL1        0.2922
     60 H          -4.6806   -6.3610    0.1598 H       1  UNL1        0.0691
     61 H          -7.0480   -6.7199    0.7201 H       1  UNL1        0.2921
     62 H          -7.3304   -3.0985    1.0165 H       1  UNL1        0.0749
     63 H          -3.9707    1.8205   -1.0697 H       1  UNL1        0.0664
     64 H          -3.9606    4.1688   -1.7429 H       1  UNL1        0.2923
     65 H          -6.8393    5.4120    1.8863 H       1  UNL1        0.2924
     66 H          -7.4660    2.4501    3.6091 H       1  UNL1        0.2923
     67 H          -6.2228    0.7078    2.4306 H       1  UNL1        0.0664
     68 H          -1.5287    1.1577   -2.2720 H       1  UNL1        0.0683
     69 H          -2.0814   -0.6622   -3.3404 H       1  UNL1        0.2102
     70 H           0.8263   -0.8431   -2.2926 H       1  UNL1        0.0648
     71 H           1.1592   -0.0623   -4.2932 H       1  UNL1        0.2100
@<TRIPOS>UNITY_ATOM_ATTR
30 1
charge 1
@<TRIPOS>BOND
     1     1     2    1
     2     2     3    1
     3     3     4    1
     4     4     5    1
     5     5     6    1
     6     6     7    2
     7     6     8    1
     8     8     9    2
     9     9    10    1
    10    10    11   ar
    11    11    12   ar
    12    12    13   ar
    13    13    14    1
    14    13    15   ar
    15    15    16   ar
    16     3    17    1
    17    17    18    1
    18    18    19    1
    19    19    20    1
    20    20    21   ar
    21    21    22   ar
    22    22    23   ar
    23    23    24    1
    24    23    25   ar
    25    25    26   ar
    26    26    27    1
    27    26    28   ar
    28    28    29   ar
    29    29    30   ar
    30    30    31   ar
    31    31    32    1
    32    32    33   ar
    33    33    34   ar
    34    34    35    1
    35    34    36   ar
    36    36    37    1
    37    36    38   ar
    38    38    39    1
    39    38    40   ar
    40    18    41    1
    41    41    42    1
    42    41    43    1
    43    43    44    1
    44    43     2    1
    45    16    10   ar
    46    31    20   ar
    47    40    32   ar
    48    29    22   ar
    49     1    45    1
    50     2    46    1
    51     3    47    1
    52     4    48    1
    53     4    49    1
    54     8    50    1
    55     9    51    1
    56    11    52    1
    57    12    53    1
    58    14    54    1
    59    15    55    1
    60    16    56    1
    61    18    57    1
    62    21    58    1
    63    24    59    1
    64    25    60    1
    65    27    61    1
    66    28    62    1
    67    33    63    1
    68    35    64    1
    69    37    65    1
    70    39    66    1
    71    40    67    1
    72    41    68    1
    73    42    69    1
    74    43    70    1
    75    44    71    1
