@<TRIPOS>MOLECULE
Pigment A
 73 78 0 0 0
SMALL
GASTEIGER

@<TRIPOS>ATOM
      1 C           4.4094    1.6857   -3.1827 C.3     1  UNL1        0.0790
      2 O           5.1573    1.3947   -2.0065 O.3     1  UNL1       -0.4913
      3 C           4.7110    0.5678   -0.9633 C.ar    1  UNL1        0.1658
      4 C           3.4632   -0.0797   -1.0041 C.ar    1  UNL1        0.0002
      5 C           3.0391   -0.8824    0.0667 C.ar    1  UNL1        0.0900
      6 C           3.8915   -1.0695    1.1635 C.ar    1  UNL1        0.0002
      7 C           5.1453   -0.4329    1.2166 C.ar    1  UNL1        0.1658
      8 O           6.0125   -0.5927    2.3096 O.3     1  UNL1       -0.4913
      9 C           5.7323   -1.3916    3.4546 C.3     1  UNL1        0.0790
     10 C           5.5459    0.3897    0.1484 C.ar    1  UNL1        0.2011
     11 O           6.7805    1.0405    0.1744 O.3     1  UNL1       -0.5009
     12 C           1.7205   -1.5565    0.0477 C.ar    1  UNL1        0.4053
     13 O           1.6506   -2.8164    0.4814 O.2     1  UNL1       -0.1996
     14 C           0.5184   -3.5121    0.5032 C.ar    1  UNL1        0.3714
     15 C          -0.6762   -2.9233    0.0577 C.ar    1  UNL1        0.1322
     16 C          -1.8785   -3.6391    0.0882 C.ar    1  UNL1        0.1487
     17 O          -3.0599   -3.0193   -0.3395 O.3     1  UNL1       -0.4544
     18 C          -3.0806   -1.6867   -0.7936 C.2     1  UNL1        0.1363
     19 C          -1.9299   -0.9876   -0.8541 C.2     1  UNL1       -0.0068
     20 C          -0.6619   -1.6066   -0.4053 C.ar    1  UNL1        0.0494
     21 C           0.5486   -0.8985   -0.3969 C.ar    1  UNL1        0.2362
     22 O           0.5756    0.4402   -0.7982 O.3     1  UNL1       -0.4511
     23 C           0.6179    1.5066    0.1462 C.3     1  UNL1        0.2313
     24 O          -0.6269    1.5480    0.8282 O.3     1  UNL1       -0.3313
     25 C          -0.7383    2.7281    1.5976 C.3     1  UNL1        0.1140
     26 C          -1.8789    2.5590    2.6079 C.3     1  UNL1        0.0731
     27 O          -3.0664    2.2085    1.9502 O.3     1  UNL1       -0.3924
     28 C          -0.9724    3.9505    0.6733 C.3     1  UNL1        0.1120
     29 O          -0.4772    5.1009    1.3112 O.3     1  UNL1       -0.3865
     30 C          -0.2739    3.7605   -0.7019 C.3     1  UNL1        0.1152
     31 O          -1.1793    3.2890   -1.6716 O.3     1  UNL1       -0.3864
     32 C           0.9520    2.8294   -0.6068 C.3     1  UNL1        0.1454
     33 O           1.9875    3.5090    0.0573 O.3     1  UNL1       -0.3829
     34 C          -4.3780   -1.0956   -1.2064 C.ar    1  UNL1        0.0175
     35 C          -5.3954   -1.9362   -1.6907 C.ar    1  UNL1       -0.0476
     36 C          -6.6317   -1.4074   -2.0736 C.ar    1  UNL1       -0.0195
     37 C          -6.8730   -0.0321   -1.9672 C.ar    1  UNL1        0.1169
     38 O          -8.1010    0.5055   -2.3459 O.3     1  UNL1       -0.5068
     39 C          -5.8735    0.8101   -1.4726 C.ar    1  UNL1       -0.0195
     40 C          -4.6355    0.2858   -1.0896 C.ar    1  UNL1       -0.0476
     41 C          -1.8884   -4.9585    0.5518 C.ar    1  UNL1        0.0234
     42 C          -0.6993   -5.5578    0.9920 C.ar    1  UNL1        0.1293
     43 O          -0.7241   -6.8723    1.4520 O.3     1  UNL1       -0.5063
     44 C           0.5041   -4.8320    0.9687 C.ar    1  UNL1        0.0847
     45 H           4.9986    2.3702   -3.8265 H       1  UNL1        0.0660
     46 H           3.4548    2.1848   -2.9144 H       1  UNL1        0.0660
     47 H           4.2079    0.7517   -3.7485 H       1  UNL1        0.0660
     48 H           2.8267    0.0267   -1.8713 H       1  UNL1        0.0664
     49 H           3.5636   -1.6982    1.9808 H       1  UNL1        0.0664
     50 H           5.5880   -2.4512    3.1551 H       1  UNL1        0.0660
     51 H           4.8259   -1.0125    3.9723 H       1  UNL1        0.0660
     52 H           6.5906   -1.3346    4.1549 H       1  UNL1        0.0660
     53 H           7.4249    0.9493    0.9505 H       1  UNL1        0.2924
     54 H          -1.9146    0.0187   -1.2482 H       1  UNL1        0.0662
     55 H           1.4240    1.2864    0.8834 H       1  UNL1        0.1084
     56 H           0.1920    2.8874    2.1955 H       1  UNL1        0.0647
     57 H          -1.6049    1.7566    3.3292 H       1  UNL1        0.0584
     58 H          -2.0226    3.5066    3.1744 H       1  UNL1        0.0584
     59 H          -3.7553    2.1130    2.6580 H       1  UNL1        0.2095
     60 H          -2.0666    4.0779    0.4928 H       1  UNL1        0.0647
     61 H          -0.9019    5.8821    0.8691 H       1  UNL1        0.2100
     62 H           0.0806    4.7513   -1.0632 H       1  UNL1        0.0648
     63 H          -1.5786    2.4453   -1.3382 H       1  UNL1        0.2100
     64 H           1.2852    2.6008   -1.6469 H       1  UNL1        0.0683
     65 H           2.8288    3.0234   -0.1502 H       1  UNL1        0.2102
     66 H          -5.2308   -3.0025   -1.7849 H       1  UNL1        0.0626
     67 H          -7.4014   -2.0679   -2.4522 H       1  UNL1        0.0654
     68 H          -8.8460   -0.0788   -2.7069 H       1  UNL1        0.2921
     69 H          -6.0590    1.8725   -1.3775 H       1  UNL1        0.0654
     70 H          -3.8952    0.9608   -0.6807 H       1  UNL1        0.0626
     71 H          -2.8166   -5.5154    0.5744 H       1  UNL1        0.0691
     72 H           0.1164   -7.3352    1.7778 H       1  UNL1        0.2921
     73 H           1.4227   -5.2917    1.3114 H       1  UNL1        0.0749
@<TRIPOS>UNITY_ATOM_ATTR
13 1
charge 1
@<TRIPOS>BOND
     1     1     2    1
     2     2     3    1
     3     3     4   ar
     4     4     5   ar
     5     5     6   ar
     6     6     7   ar
     7     7     8    1
     8     8     9    1
     9     7    10   ar
    10    10    11    1
    11     5    12    1
    12    12    13   ar
    13    13    14   ar
    14    14    15   ar
    15    15    16   ar
    16    16    17    1
    17    17    18    1
    18    18    19    2
    19    19    20    1
    20    20    21   ar
    21    21    22    1
    22    22    23    1
    23    23    24    1
    24    24    25    1
    25    25    26    1
    26    26    27    1
    27    25    28    1
    28    28    29    1
    29    28    30    1
    30    30    31    1
    31    30    32    1
    32    32    33    1
    33    18    34    1
    34    34    35   ar
    35    35    36   ar
    36    36    37   ar
    37    37    38    1
    38    37    39   ar
    39    39    40   ar
    40    16    41   ar
    41    41    42   ar
    42    42    43    1
    43    42    44   ar
    44    10     3   ar
    45    21    12   ar
    46    32    23    1
    47    40    34   ar
    48    44    14   ar
    49    20    15   ar
    50     1    45    1
    51     1    46    1
    52     1    47    1
    53     4    48    1
    54     6    49    1
    55     9    50    1
    56     9    51    1
    57     9    52    1
    58    11    53    1
    59    19    54    1
    60    23    55    1
    61    25    56    1
    62    26    57    1
    63    26    58    1
    64    27    59    1
    65    28    60    1
    66    29    61    1
    67    30    62    1
    68    31    63    1
    69    32    64    1
    70    33    65    1
    71    35    66    1
    72    36    67    1
    73    38    68    1
    74    39    69    1
    75    40    70    1
    76    41    71    1
    77    43    72    1
    78    44    73    1
