@<TRIPOS>MOLECULE
Cyanidin 3-O-(6''-p-coumaroyl-glucoside)
 70 74 0 0 0
SMALL
GASTEIGER

@<TRIPOS>ATOM
      1 O           0.8321    3.5429   -4.9774 O.3     1  UNL1       -0.3864
      2 C           0.0927    3.2940   -3.8039 C.3     1  UNL1        0.1130
      3 C           0.9963    2.8264   -2.6170 C.3     1  UNL1        0.1250
      4 C           2.2002    1.9929   -3.0895 C.3     1  UNL1        0.1215
      5 O           2.7588    1.3061   -1.9741 O.3     1  UNL1       -0.4589
      6 C           3.6346    0.2262   -2.1028 C.2     1  UNL1        0.3320
      7 O           4.3240    0.0843   -3.1483 O.2     1  UNL1       -0.2456
      8 C           3.7172   -0.7817   -1.0343 C.2     1  UNL1        0.0231
      9 C           2.8958   -0.7423    0.0249 C.2     1  UNL1       -0.0478
     10 C           2.8439   -1.7808    1.0824 C.ar    1  UNL1       -0.0246
     11 C           2.1903   -1.4751    2.2886 C.ar    1  UNL1       -0.0511
     12 C           2.0656   -2.4372    3.2944 C.ar    1  UNL1       -0.0196
     13 C           2.5820   -3.7215    3.1069 C.ar    1  UNL1        0.1169
     14 O           2.4404   -4.6740    4.1133 O.3     1  UNL1       -0.5068
     15 C           3.2291   -4.0408    1.9070 C.ar    1  UNL1       -0.0196
     16 C           3.3572   -3.0809    0.8984 C.ar    1  UNL1       -0.0511
     17 O           0.3027    2.0400   -1.6536 O.3     1  UNL1       -0.3302
     18 C          -1.0467    2.4227   -1.4797 C.3     1  UNL1        0.2313
     19 O          -1.5893    1.7651   -0.3300 O.3     1  UNL1       -0.4515
     20 C          -1.3500    0.4335    0.0692 C.ar    1  UNL1        0.2288
     21 C          -0.7410   -0.5142   -0.7735 C.ar    1  UNL1        0.0093
     22 C          -0.5056   -1.8210   -0.3184 C.ar    1  UNL1        0.1241
     23 C           0.1557   -2.8092   -1.0939 C.ar    1  UNL1        0.1366
     24 O           0.6763   -2.5615   -2.3676 O.3     1  UNL1       -0.5057
     25 C           0.3230   -4.0965   -0.5692 C.ar    1  UNL1        0.0225
     26 C          -0.1362   -4.4139    0.7139 C.ar    1  UNL1        0.1293
     27 O           0.0477   -5.6915    1.2377 O.3     1  UNL1       -0.5063
     28 C          -0.7755   -3.4414    1.4825 C.ar    1  UNL1        0.0847
     29 C          -0.9565   -2.1504    0.9801 C.ar    1  UNL1        0.3708
     30 O          -1.5476   -1.2380    1.7417 O.2     1  UNL1       -0.1997
     31 C          -1.7431    0.0199    1.3573 C.ar    1  UNL1        0.4046
     32 C          -2.3818    0.9478    2.3165 C.ar    1  UNL1        0.0865
     33 C          -3.4799    0.5112    3.0733 C.ar    1  UNL1       -0.0418
     34 C          -4.0837    1.3643    4.0004 C.ar    1  UNL1       -0.0157
     35 C          -3.5883    2.6602    4.1961 C.ar    1  UNL1        0.1583
     36 O          -4.1942    3.5102    5.1200 O.3     1  UNL1       -0.5033
     37 C          -2.4743    3.0979    3.4602 C.ar    1  UNL1        0.1591
     38 O          -1.9480    4.3765    3.6418 O.3     1  UNL1       -0.5033
     39 C          -1.8730    2.2412    2.5311 C.ar    1  UNL1       -0.0003
     40 C          -1.8960    2.1098   -2.7350 C.3     1  UNL1        0.1454
     41 O          -3.0112    2.9662   -2.7421 O.3     1  UNL1       -0.3829
     42 C          -1.0527    2.2786   -4.0276 C.3     1  UNL1        0.1152
     43 O          -1.8517    2.6295   -5.1318 O.3     1  UNL1       -0.3864
     44 H           0.9731    2.6810   -5.4482 H       1  UNL1        0.2100
     45 H          -0.3711    4.2616   -3.5086 H       1  UNL1        0.0647
     46 H           1.3992    3.7284   -2.1044 H       1  UNL1        0.0658
     47 H           2.9705    2.6451   -3.5550 H       1  UNL1        0.0725
     48 H           1.8602    1.2383   -3.8323 H       1  UNL1        0.0725
     49 H           4.4380   -1.5786   -1.1513 H       1  UNL1        0.0689
     50 H           2.2117    0.0928    0.1260 H       1  UNL1        0.0626
     51 H           1.7668   -0.4908    2.4495 H       1  UNL1        0.0625
     52 H           1.5565   -2.1870    4.2164 H       1  UNL1        0.0654
     53 H           2.7985   -5.6157    4.0048 H       1  UNL1        0.2921
     54 H           3.6196   -5.0379    1.7482 H       1  UNL1        0.0654
     55 H           3.8256   -3.3773   -0.0290 H       1  UNL1        0.0625
     56 H          -1.0917    3.5168   -1.2714 H       1  UNL1        0.1084
     57 H          -0.4764   -0.2334   -1.7758 H       1  UNL1        0.0667
     58 H           0.6857   -1.6566   -2.8156 H       1  UNL1        0.2922
     59 H           0.8295   -4.8504   -1.1588 H       1  UNL1        0.0691
     60 H           0.5180   -6.4176    0.7103 H       1  UNL1        0.2921
     61 H          -1.1210   -3.6861    2.4794 H       1  UNL1        0.0749
     62 H          -3.8777   -0.4871    2.9370 H       1  UNL1        0.0628
     63 H          -4.9372    1.0160    4.5681 H       1  UNL1        0.0655
     64 H          -4.9976    3.2169    5.6635 H       1  UNL1        0.2923
     65 H          -2.3454    5.0331    4.3028 H       1  UNL1        0.2923
     66 H          -0.9947    2.5815    1.9969 H       1  UNL1        0.0664
     67 H          -2.2436    1.0513   -2.6836 H       1  UNL1        0.0683
     68 H          -3.7280    2.5074   -3.2539 H       1  UNL1        0.2102
     69 H          -0.5912    1.2922   -4.2561 H       1  UNL1        0.0648
     70 H          -2.1167    3.5805   -5.0269 H       1  UNL1        0.2100
@<TRIPOS>UNITY_ATOM_ATTR
30 1
charge 1
@<TRIPOS>BOND
     1     1     2    1
     2     2     3    1
     3     3     4    1
     4     4     5    1
     5     5     6    1
     6     6     7    2
     7     6     8    1
     8     8     9    2
     9     9    10    1
    10    10    11   ar
    11    11    12   ar
    12    12    13   ar
    13    13    14    1
    14    13    15   ar
    15    15    16   ar
    16     3    17    1
    17    17    18    1
    18    18    19    1
    19    19    20    1
    20    20    21   ar
    21    21    22   ar
    22    22    23   ar
    23    23    24    1
    24    23    25   ar
    25    25    26   ar
    26    26    27    1
    27    26    28   ar
    28    28    29   ar
    29    29    30   ar
    30    30    31   ar
    31    31    32    1
    32    32    33   ar
    33    33    34   ar
    34    34    35   ar
    35    35    36    1
    36    35    37   ar
    37    37    38    1
    38    37    39   ar
    39    18    40    1
    40    40    41    1
    41    40    42    1
    42    42    43    1
    43    42     2    1
    44    16    10   ar
    45    31    20   ar
    46    39    32   ar
    47    29    22   ar
    48     1    44    1
    49     2    45    1
    50     3    46    1
    51     4    47    1
    52     4    48    1
    53     8    49    1
    54     9    50    1
    55    11    51    1
    56    12    52    1
    57    14    53    1
    58    15    54    1
    59    16    55    1
    60    18    56    1
    61    21    57    1
    62    24    58    1
    63    25    59    1
    64    27    60    1
    65    28    61    1
    66    33    62    1
    67    34    63    1
    68    36    64    1
    69    38    65    1
    70    39    66    1
    71    40    67    1
    72    41    68    1
    73    42    69    1
    74    43    70    1
