@<TRIPOS>MOLECULE
Cyanidin 3-O-sambubioside 5-O-glucoside
 91 96 0 0 0
SMALL
GASTEIGER

@<TRIPOS>ATOM
      1 O          -7.7581   -0.2521    2.8200 O.3     1  UNL1       -0.3924
      2 C          -8.2604   -0.0131    1.5335 C.3     1  UNL1        0.0731
      3 C          -7.5950   -0.9062    0.4598 C.3     1  UNL1        0.1140
      4 O          -6.3068   -0.4385    0.0817 O.3     1  UNL1       -0.3313
      5 C          -5.2887   -0.8263    0.9880 C.3     1  UNL1        0.2308
      6 O          -4.0479   -0.2825    0.5415 O.3     1  UNL1       -0.4598
      7 C          -3.7217    1.0848    0.5141 C.ar    1  UNL1        0.1437
      8 C          -2.4465    1.4733    0.0582 C.ar    1  UNL1        0.1245
      9 C          -1.4983    0.5354   -0.3663 C.ar    1  UNL1        0.0093
     10 C          -0.2339    0.9608   -0.7712 C.ar    1  UNL1        0.2288
     11 O           0.7338    0.0105   -1.1065 O.3     1  UNL1       -0.4514
     12 C           1.8284   -0.2802   -0.2335 C.3     1  UNL1        0.2316
     13 O           1.3945   -1.0128    0.9021 O.3     1  UNL1       -0.3313
     14 C           0.8722   -2.2818    0.5387 C.3     1  UNL1        0.1140
     15 C           0.2873   -2.9486    1.7940 C.3     1  UNL1        0.0731
     16 O           1.2791   -3.1685    2.7620 O.3     1  UNL1       -0.3924
     17 C           1.9642   -3.1583   -0.1150 C.3     1  UNL1        0.1120
     18 O           1.4233   -4.4002   -0.4882 O.3     1  UNL1       -0.3865
     19 C           2.5359   -2.4417   -1.3511 C.3     1  UNL1        0.1155
     20 O           1.5733   -2.4188   -2.3757 O.3     1  UNL1       -0.3863
     21 C           2.9612   -1.0045   -0.9847 C.3     1  UNL1        0.1519
     22 O           4.0977   -1.0434   -0.1334 O.3     1  UNL1       -0.3366
     23 C           5.3107   -0.9000   -0.8525 C.3     1  UNL1        0.1882
     24 O           6.3218   -1.5630   -0.1045 O.3     1  UNL1       -0.3461
     25 C           7.6066   -1.2315   -0.5903 C.3     1  UNL1        0.0792
     26 C           7.9736    0.2144   -0.2026 C.3     1  UNL1        0.1069
     27 O           8.8407    0.7414   -1.1740 O.3     1  UNL1       -0.3869
     28 C           6.7074    1.0955   -0.0771 C.3     1  UNL1        0.1137
     29 O           6.2215    1.0236    1.2401 O.3     1  UNL1       -0.3864
     30 C           5.6168    0.6190   -1.0601 C.3     1  UNL1        0.1341
     31 O           6.0406    0.8274   -2.3839 O.3     1  UNL1       -0.3841
     32 C           0.0422    2.3435   -0.8007 C.ar    1  UNL1        0.4046
     33 O          -0.8809    3.2093   -0.3860 O.2     1  UNL1       -0.1997
     34 C          -2.0859    2.8382    0.0371 C.ar    1  UNL1        0.3708
     35 C          -2.9986    3.8073    0.4597 C.ar    1  UNL1        0.0847
     36 C          -4.2670    3.4318    0.9083 C.ar    1  UNL1        0.1293
     37 O          -5.1638    4.4130    1.3259 O.3     1  UNL1       -0.5063
     38 C          -4.6279    2.0778    0.9373 C.ar    1  UNL1        0.0229
     39 C           1.3364    2.8712   -1.2830 C.ar    1  UNL1        0.0865
     40 C           1.9735    3.9021   -0.5769 C.ar    1  UNL1       -0.0418
     41 C           3.1954    4.4125   -1.0226 C.ar    1  UNL1       -0.0157
     42 C           3.7856    3.9143   -2.1918 C.ar    1  UNL1        0.1583
     43 O           5.0037    4.4270   -2.6350 O.3     1  UNL1       -0.5033
     44 C           3.1424    2.8974   -2.9175 C.ar    1  UNL1        0.1591
     45 O           3.6941    2.3907   -4.0937 O.3     1  UNL1       -0.5033
     46 C           1.9250    2.3809   -2.4616 C.ar    1  UNL1       -0.0003
     47 C          -5.1549   -2.3534    1.0318 C.3     1  UNL1        0.1454
     48 O          -4.0918   -2.7092    1.8783 O.3     1  UNL1       -0.3829
     49 C          -6.4641   -2.9779    1.5308 C.3     1  UNL1        0.1152
     50 O          -6.6308   -2.7085    2.9000 O.3     1  UNL1       -0.3864
     51 C          -7.6503   -2.4447    0.7033 C.3     1  UNL1        0.1120
     52 O          -8.8652   -2.8227    1.2991 O.3     1  UNL1       -0.3865
     53 H          -8.4330   -0.7978    3.3018 H       1  UNL1        0.2095
     54 H          -8.0760    1.0517    1.2775 H       1  UNL1        0.0584
     55 H          -9.3669   -0.1568    1.5051 H       1  UNL1        0.0584
     56 H          -8.2295   -0.7461   -0.4402 H       1  UNL1        0.0647
     57 H          -5.4822   -0.4409    2.0114 H       1  UNL1        0.1084
     58 H          -1.7215   -0.5237   -0.3563 H       1  UNL1        0.0667
     59 H           2.2520    0.6801    0.1333 H       1  UNL1        0.1084
     60 H           0.0255   -2.1661   -0.1747 H       1  UNL1        0.0647
     61 H          -0.1714   -3.9236    1.5248 H       1  UNL1        0.0584
     62 H          -0.5263   -2.3112    2.2110 H       1  UNL1        0.0584
     63 H           1.4303   -2.3005    3.2192 H       1  UNL1        0.2095
     64 H           2.7872   -3.3139    0.6221 H       1  UNL1        0.0647
     65 H           2.1908   -5.0073   -0.6561 H       1  UNL1        0.2100
     66 H           3.4268   -3.0138   -1.7003 H       1  UNL1        0.0648
     67 H           2.0548   -2.2038   -3.2170 H       1  UNL1        0.2100
     68 H           3.1537   -0.4267   -1.9214 H       1  UNL1        0.0687
     69 H           5.2436   -1.4120   -1.8443 H       1  UNL1        0.0937
     70 H           8.3467   -1.9270   -0.1407 H       1  UNL1        0.0587
     71 H           7.6635   -1.3805   -1.6942 H       1  UNL1        0.0587
     72 H           8.4972    0.1895    0.7829 H       1  UNL1        0.0643
     73 H           9.2929    1.5236   -0.7621 H       1  UNL1        0.2100
     74 H           6.9743    2.1550   -0.3033 H       1  UNL1        0.0647
     75 H           5.5796    1.7731    1.3520 H       1  UNL1        0.2100
     76 H           4.6926    1.2175   -0.8845 H       1  UNL1        0.0671
     77 H           6.0555    1.8085   -2.5318 H       1  UNL1        0.2101
     78 H          -2.7221    4.8544    0.4407 H       1  UNL1        0.0749
     79 H          -6.0919    4.1766    1.6572 H       1  UNL1        0.2921
     80 H          -5.6127    1.8123    1.2938 H       1  UNL1        0.0691
     81 H           1.5326    4.3001    0.3290 H       1  UNL1        0.0628
     82 H           3.6820    5.1985   -0.4594 H       1  UNL1        0.0655
     83 H           5.4886    5.1571   -2.1266 H       1  UNL1        0.2923
     84 H           4.5683    2.7364   -4.4706 H       1  UNL1        0.2923
     85 H           1.4320    1.6094   -3.0401 H       1  UNL1        0.0664
     86 H          -4.9465   -2.7146   -0.0036 H       1  UNL1        0.0683
     87 H          -3.8686   -3.6550    1.6747 H       1  UNL1        0.2102
     88 H          -6.3933   -4.0815    1.3785 H       1  UNL1        0.0648
     89 H          -7.2340   -3.4083    3.2633 H       1  UNL1        0.2100
     90 H          -7.5748   -2.9380   -0.2956 H       1  UNL1        0.0647
     91 H          -9.5704   -2.7090    0.6094 H       1  UNL1        0.2100
@<TRIPOS>UNITY_ATOM_ATTR
33 1
charge 1
@<TRIPOS>BOND
     1     1     2    1
     2     2     3    1
     3     3     4    1
     4     4     5    1
     5     5     6    1
     6     6     7    1
     7     7     8   ar
     8     8     9   ar
     9     9    10   ar
    10    10    11    1
    11    11    12    1
    12    12    13    1
    13    13    14    1
    14    14    15    1
    15    15    16    1
    16    14    17    1
    17    17    18    1
    18    17    19    1
    19    19    20    1
    20    19    21    1
    21    21    22    1
    22    22    23    1
    23    23    24    1
    24    24    25    1
    25    25    26    1
    26    26    27    1
    27    26    28    1
    28    28    29    1
    29    28    30    1
    30    30    31    1
    31    10    32   ar
    32    32    33   ar
    33    33    34   ar
    34    34    35   ar
    35    35    36   ar
    36    36    37    1
    37    36    38   ar
    38    32    39    1
    39    39    40   ar
    40    40    41   ar
    41    41    42   ar
    42    42    43    1
    43    42    44   ar
    44    44    45    1
    45    44    46   ar
    46     5    47    1
    47    47    48    1
    48    47    49    1
    49    49    50    1
    50    49    51    1
    51    51    52    1
    52    51     3    1
    53    38     7   ar
    54    46    39   ar
    55    34     8   ar
    56    21    12    1
    57    30    23    1
    58     1    53    1
    59     2    54    1
    60     2    55    1
    61     3    56    1
    62     5    57    1
    63     9    58    1
    64    12    59    1
    65    14    60    1
    66    15    61    1
    67    15    62    1
    68    16    63    1
    69    17    64    1
    70    18    65    1
    71    19    66    1
    72    20    67    1
    73    21    68    1
    74    23    69    1
    75    25    70    1
    76    25    71    1
    77    26    72    1
    78    27    73    1
    79    28    74    1
    80    29    75    1
    81    30    76    1
    82    31    77    1
    83    35    78    1
    84    37    79    1
    85    38    80    1
    86    40    81    1
    87    41    82    1
    88    43    83    1
    89    45    84    1
    90    46    85    1
    91    47    86    1
    92    48    87    1
    93    49    88    1
    94    50    89    1
    95    51    90    1
    96    52    91    1
