@<TRIPOS>MOLECULE
Cyanidin 3-O-(6''-caffeoyl-glucoside)
 71 75 0 0 0
SMALL
GASTEIGER

@<TRIPOS>ATOM
      1 O          -0.3772   -3.7878    0.6088 O.3     1  UNL1       -0.3864
      2 C           0.5735   -2.7612    0.7374 C.3     1  UNL1        0.1130
      3 C          -0.0449   -1.5589    1.5272 C.3     1  UNL1        0.1250
      4 C           0.8135   -1.1825    2.7450 C.3     1  UNL1        0.1215
      5 O           2.1211   -0.7669    2.3519 O.3     1  UNL1       -0.4589
      6 C           2.4303    0.5338    1.9327 C.2     1  UNL1        0.3320
      7 O           1.5660    1.4495    1.9944 O.2     1  UNL1       -0.2456
      8 C           3.7702    0.8495    1.4151 C.2     1  UNL1        0.0231
      9 C           4.7305   -0.0804    1.3246 C.2     1  UNL1       -0.0477
     10 C           6.0936    0.1902    0.8054 C.ar    1  UNL1       -0.0211
     11 C           6.3779    1.2739   -0.0502 C.ar    1  UNL1       -0.0094
     12 C           7.6808    1.4816   -0.5270 C.ar    1  UNL1        0.1588
     13 O           7.9605    2.5559   -1.3701 O.3     1  UNL1       -0.5033
     14 C           8.7080    0.6044   -0.1598 C.ar    1  UNL1        0.1582
     15 O          10.0016    0.8169   -0.6333 O.3     1  UNL1       -0.5033
     16 C           8.4286   -0.4828    0.6769 C.ar    1  UNL1       -0.0160
     17 C           7.1309   -0.6913    1.1506 C.ar    1  UNL1       -0.0509
     18 O          -0.2212   -0.4107    0.7115 O.3     1  UNL1       -0.3302
     19 C          -0.9648   -0.7451   -0.4437 C.3     1  UNL1        0.2313
     20 O          -1.3766    0.4607   -1.0901 O.3     1  UNL1       -0.4515
     21 C          -2.7093    0.7326   -1.4247 C.ar    1  UNL1        0.2288
     22 C          -3.0227    1.0100   -2.7551 C.ar    1  UNL1        0.0093
     23 C          -4.3598    1.2015   -3.1402 C.ar    1  UNL1        0.1241
     24 C          -4.7561    1.4609   -4.4777 C.ar    1  UNL1        0.1366
     25 O          -3.8490    1.5745   -5.5351 O.3     1  UNL1       -0.5057
     26 C          -6.1159    1.6155   -4.7745 C.ar    1  UNL1        0.0225
     27 C          -7.0849    1.5213   -3.7731 C.ar    1  UNL1        0.1293
     28 O          -8.4294    1.6799   -4.1016 O.3     1  UNL1       -0.5063
     29 C          -6.6993    1.2709   -2.4527 C.ar    1  UNL1        0.0847
     30 C          -5.3490    1.1121   -2.1307 C.ar    1  UNL1        0.3708
     31 O          -5.0077    0.8848   -0.8666 O.2     1  UNL1       -0.1997
     32 C          -3.7491    0.7188   -0.4715 C.ar    1  UNL1        0.4046
     33 C          -3.4880    0.5452    0.9706 C.ar    1  UNL1        0.0865
     34 C          -2.5319    1.3373    1.6275 C.ar    1  UNL1       -0.0003
     35 C          -2.2876    1.1636    2.9970 C.ar    1  UNL1        0.1591
     36 O          -1.3344    1.9444    3.6482 O.3     1  UNL1       -0.5033
     37 C          -3.0047    0.1996    3.7169 C.ar    1  UNL1        0.1583
     38 O          -2.7500    0.0203    5.0752 O.3     1  UNL1       -0.5033
     39 C          -3.9750   -0.5761    3.0680 C.ar    1  UNL1       -0.0157
     40 C          -4.2228   -0.3971    1.7043 C.ar    1  UNL1       -0.0418
     41 C          -0.0943   -1.5730   -1.4191 C.3     1  UNL1        0.1454
     42 O          -0.8985   -2.4951   -2.1096 O.3     1  UNL1       -0.3829
     43 C           1.0297   -2.3272   -0.6724 C.3     1  UNL1        0.1152
     44 O           2.1561   -1.4923   -0.5731 O.3     1  UNL1       -0.3864
     45 H          -0.4525   -4.2209    1.4992 H       1  UNL1        0.2100
     46 H           1.4648   -3.1721    1.2686 H       1  UNL1        0.0647
     47 H          -1.0365   -1.8570    1.9423 H       1  UNL1        0.0658
     48 H           0.9096   -2.0694    3.4071 H       1  UNL1        0.0725
     49 H           0.3149   -0.3862    3.3391 H       1  UNL1        0.0725
     50 H           3.9616    1.8727    1.1223 H       1  UNL1        0.0689
     51 H           4.5252   -1.0832    1.6815 H       1  UNL1        0.0626
     52 H           5.5967    1.9473   -0.3738 H       1  UNL1        0.0661
     53 H           7.2396    3.2084   -1.6554 H       1  UNL1        0.2923
     54 H          10.7649    0.1981   -0.3857 H       1  UNL1        0.2923
     55 H           9.2170   -1.1685    0.9605 H       1  UNL1        0.0655
     56 H           6.9380   -1.5394    1.7965 H       1  UNL1        0.0625
     57 H          -1.8671   -1.3431   -0.1655 H       1  UNL1        0.1084
     58 H          -2.2114    1.0310   -3.4657 H       1  UNL1        0.0667
     59 H          -2.8469    1.5015   -5.4369 H       1  UNL1        0.2922
     60 H          -6.4219    1.8120   -5.7947 H       1  UNL1        0.0691
     61 H          -9.1573    1.6181   -3.3992 H       1  UNL1        0.2921
     62 H          -7.4492    1.2009   -1.6743 H       1  UNL1        0.0749
     63 H          -1.9766    2.0869    1.0769 H       1  UNL1        0.0664
     64 H          -0.8011    2.6506    3.1548 H       1  UNL1        0.2923
     65 H          -3.2519   -0.6698    5.6218 H       1  UNL1        0.2923
     66 H          -4.5372   -1.3187    3.6196 H       1  UNL1        0.0655
     67 H          -4.9728   -1.0075    1.2163 H       1  UNL1        0.0628
     68 H           0.3882   -0.8915   -2.1599 H       1  UNL1        0.0683
     69 H          -1.4452   -1.9722   -2.7530 H       1  UNL1        0.2102
     70 H           1.3062   -3.2332   -1.2629 H       1  UNL1        0.0648
     71 H           2.9319   -2.0760   -0.3648 H       1  UNL1        0.2100
@<TRIPOS>UNITY_ATOM_ATTR
31 1
charge 1
@<TRIPOS>BOND
     1     1     2    1
     2     2     3    1
     3     3     4    1
     4     4     5    1
     5     5     6    1
     6     6     7    2
     7     6     8    1
     8     8     9    2
     9     9    10    1
    10    10    11   ar
    11    11    12   ar
    12    12    13    1
    13    12    14   ar
    14    14    15    1
    15    14    16   ar
    16    16    17   ar
    17     3    18    1
    18    18    19    1
    19    19    20    1
    20    20    21    1
    21    21    22   ar
    22    22    23   ar
    23    23    24   ar
    24    24    25    1
    25    24    26   ar
    26    26    27   ar
    27    27    28    1
    28    27    29   ar
    29    29    30   ar
    30    30    31   ar
    31    31    32   ar
    32    32    33    1
    33    33    34   ar
    34    34    35   ar
    35    35    36    1
    36    35    37   ar
    37    37    38    1
    38    37    39   ar
    39    39    40   ar
    40    19    41    1
    41    41    42    1
    42    41    43    1
    43    43    44    1
    44    43     2    1
    45    17    10   ar
    46    32    21   ar
    47    40    33   ar
    48    30    23   ar
    49     1    45    1
    50     2    46    1
    51     3    47    1
    52     4    48    1
    53     4    49    1
    54     8    50    1
    55     9    51    1
    56    11    52    1
    57    13    53    1
    58    15    54    1
    59    16    55    1
    60    17    56    1
    61    19    57    1
    62    22    58    1
    63    25    59    1
    64    26    60    1
    65    28    61    1
    66    29    62    1
    67    34    63    1
    68    36    64    1
    69    38    65    1
    70    39    66    1
    71    40    67    1
    72    41    68    1
    73    42    69    1
    74    43    70    1
    75    44    71    1
