@<TRIPOS>MOLECULE
Cyanidin 3-O-sophoroside
 74 78 0 0 0
SMALL
GASTEIGER

@<TRIPOS>ATOM
      1 O           0.3628    3.5643   -0.6126 O.3     1  UNL1       -0.3924
      2 C           1.6941    3.2106   -0.3433 C.3     1  UNL1        0.0730
      3 C           2.1227    1.9998   -1.1848 C.3     1  UNL1        0.1130
      4 O           1.2044    0.9428   -0.9610 O.3     1  UNL1       -0.3405
      5 C           1.6625   -0.2540   -1.5712 C.3     1  UNL1        0.1886
      6 O           0.7692   -1.3039   -1.2548 O.3     1  UNL1       -0.3366
      7 C           0.9186   -1.7365    0.0901 C.3     1  UNL1        0.1519
      8 C          -0.5021   -1.9794    0.6912 C.3     1  UNL1        0.2316
      9 O          -0.6017   -1.3687    1.9805 O.3     1  UNL1       -0.4514
     10 C          -0.6434    0.0179    2.1801 C.ar    1  UNL1        0.2288
     11 C           0.3843    0.6153    2.9105 C.ar    1  UNL1        0.0093
     12 C           0.4209    2.0091    3.0703 C.ar    1  UNL1        0.1241
     13 C           1.4546    2.6870    3.7667 C.ar    1  UNL1        0.1366
     14 O           2.5176    2.0264    4.3890 O.3     1  UNL1       -0.5057
     15 C           1.4288    4.0849    3.8449 C.ar    1  UNL1        0.0225
     16 C           0.3987    4.8184    3.2524 C.ar    1  UNL1        0.1293
     17 O           0.4037    6.2083    3.3457 O.3     1  UNL1       -0.5063
     18 C          -0.6266    4.1544    2.5727 C.ar    1  UNL1        0.0847
     19 C          -0.6211    2.7606    2.4767 C.ar    1  UNL1        0.3708
     20 O          -1.6049    2.1537    1.8221 O.2     1  UNL1       -0.1997
     21 C          -1.6758    0.8344    1.6694 C.ar    1  UNL1        0.4046
     22 C          -2.8602    0.2822    0.9787 C.ar    1  UNL1        0.0865
     23 C          -3.5335   -0.8464    1.4791 C.ar    1  UNL1       -0.0003
     24 C          -4.6507   -1.3621    0.8072 C.ar    1  UNL1        0.1591
     25 O          -5.3067   -2.4915    1.2935 O.3     1  UNL1       -0.5033
     26 C          -5.1128   -0.7394   -0.3591 C.ar    1  UNL1        0.1583
     27 O          -6.2222   -1.2560   -1.0258 O.3     1  UNL1       -0.5033
     28 C          -4.4589    0.4000   -0.8468 C.ar    1  UNL1       -0.0157
     29 C          -3.3433    0.9113   -0.1787 C.ar    1  UNL1       -0.0418
     30 O          -0.8146   -3.3562    0.8405 O.3     1  UNL1       -0.3313
     31 C          -0.5380   -4.0637   -0.3524 C.3     1  UNL1        0.1140
     32 C          -1.2515   -5.4211   -0.2927 C.3     1  UNL1        0.0731
     33 O          -1.1145   -6.1094   -1.5074 O.3     1  UNL1       -0.3924
     34 C           0.9987   -4.2263   -0.5060 C.3     1  UNL1        0.1120
     35 O           1.3530   -4.4008   -1.8566 O.3     1  UNL1       -0.3865
     36 C           1.7626   -3.0316    0.1236 C.3     1  UNL1        0.1155
     37 O           2.0844   -3.3435    1.4567 O.3     1  UNL1       -0.3863
     38 C           1.6832   -0.0908   -3.1003 C.3     1  UNL1        0.1341
     39 O           2.1649   -1.2734   -3.6851 O.3     1  UNL1       -0.3841
     40 C           2.5847    1.0926   -3.4905 C.3     1  UNL1        0.1141
     41 O           2.4523    1.3398   -4.8670 O.3     1  UNL1       -0.3864
     42 C           2.1875    2.3470   -2.6898 C.3     1  UNL1        0.1119
     43 O           3.1359    3.3627   -2.8988 O.3     1  UNL1       -0.3865
     44 H           0.3857    4.2541   -1.3257 H       1  UNL1        0.2095
     45 H           1.7746    2.9401    0.7291 H       1  UNL1        0.0584
     46 H           2.3818    4.0721   -0.5079 H       1  UNL1        0.0584
     47 H           3.1408    1.7112   -0.8304 H       1  UNL1        0.0647
     48 H           2.6958   -0.5125   -1.2285 H       1  UNL1        0.0938
     49 H           1.4414   -0.9765    0.7199 H       1  UNL1        0.0687
     50 H          -1.2614   -1.5249    0.0197 H       1  UNL1        0.1084
     51 H           1.1553   -0.0279    3.3050 H       1  UNL1        0.0667
     52 H           2.6287    1.0233    4.4148 H       1  UNL1        0.2922
     53 H           2.2185    4.6059    4.3720 H       1  UNL1        0.0691
     54 H          -0.3280    6.7701    2.9264 H       1  UNL1        0.2921
     55 H          -1.4266    4.7214    2.1128 H       1  UNL1        0.0749
     56 H          -3.1953   -1.3237    2.3903 H       1  UNL1        0.0664
     57 H          -4.9943   -2.9658    2.1328 H       1  UNL1        0.2923
     58 H          -6.5796   -0.8269   -1.8714 H       1  UNL1        0.2923
     59 H          -4.8132    0.8887   -1.7454 H       1  UNL1        0.0655
     60 H          -2.8454    1.7881   -0.5750 H       1  UNL1        0.0628
     61 H          -0.9596   -3.5186   -1.2315 H       1  UNL1        0.0647
     62 H          -0.8702   -6.0301    0.5600 H       1  UNL1        0.0584
     63 H          -2.3341   -5.2472   -0.1138 H       1  UNL1        0.0584
     64 H          -0.2810   -6.6444   -1.4428 H       1  UNL1        0.2095
     65 H           1.3221   -5.1457    0.0314 H       1  UNL1        0.0647
     66 H           1.0934   -3.5802   -2.3491 H       1  UNL1        0.2100
     67 H           2.7083   -2.8714   -0.4460 H       1  UNL1        0.0648
     68 H           2.8053   -2.7196    1.7344 H       1  UNL1        0.2100
     69 H           0.6397    0.1091   -3.4441 H       1  UNL1        0.0671
     70 H           1.8533   -1.2764   -4.6277 H       1  UNL1        0.2101
     71 H           3.6417    0.8228   -3.2496 H       1  UNL1        0.0648
     72 H           3.2833    1.7969   -5.1603 H       1  UNL1        0.2100
     73 H           1.1769    2.6829   -3.0249 H       1  UNL1        0.0647
     74 H           2.8743    3.8361   -3.7312 H       1  UNL1        0.2100
@<TRIPOS>UNITY_ATOM_ATTR
20 1
charge 1
@<TRIPOS>BOND
     1     1     2    1
     2     2     3    1
     3     3     4    1
     4     4     5    1
     5     5     6    1
     6     6     7    1
     7     7     8    1
     8     8     9    1
     9     9    10    1
    10    10    11   ar
    11    11    12   ar
    12    12    13   ar
    13    13    14    1
    14    13    15   ar
    15    15    16   ar
    16    16    17    1
    17    16    18   ar
    18    18    19   ar
    19    19    20   ar
    20    20    21   ar
    21    21    22    1
    22    22    23   ar
    23    23    24   ar
    24    24    25    1
    25    24    26   ar
    26    26    27    1
    27    26    28   ar
    28    28    29   ar
    29     8    30    1
    30    30    31    1
    31    31    32    1
    32    32    33    1
    33    31    34    1
    34    34    35    1
    35    34    36    1
    36    36    37    1
    37     5    38    1
    38    38    39    1
    39    38    40    1
    40    40    41    1
    41    40    42    1
    42    42    43    1
    43    42     3    1
    44    36     7    1
    45    21    10   ar
    46    29    22   ar
    47    19    12   ar
    48     1    44    1
    49     2    45    1
    50     2    46    1
    51     3    47    1
    52     5    48    1
    53     7    49    1
    54     8    50    1
    55    11    51    1
    56    14    52    1
    57    15    53    1
    58    17    54    1
    59    18    55    1
    60    23    56    1
    61    25    57    1
    62    27    58    1
    63    28    59    1
    64    29    60    1
    65    31    61    1
    66    32    62    1
    67    32    63    1
    68    33    64    1
    69    34    65    1
    70    35    66    1
    71    36    67    1
    72    37    68    1
    73    38    69    1
    74    39    70    1
    75    40    71    1
    76    41    72    1
    77    42    73    1
    78    43    74    1
