@<TRIPOS>MOLECULE
Cyanidin 3,5-O-diglucoside
 74 78 0 0 0
SMALL
GASTEIGER

@<TRIPOS>ATOM
      1 O           7.0749   -1.3697   -3.1592 O.3     1  UNL1       -0.3924
      2 C           5.7065   -1.1613   -2.9307 C.3     1  UNL1        0.0731
      3 C           5.3948   -1.1559   -1.4262 C.3     1  UNL1        0.1140
      4 O           4.0381   -0.7659   -1.2638 O.3     1  UNL1       -0.3313
      5 C           3.6426   -0.9021    0.0872 C.3     1  UNL1        0.2308
      6 O           2.4067   -0.2189    0.2868 O.3     1  UNL1       -0.4598
      7 C           2.2133    1.1671    0.1512 C.ar    1  UNL1        0.1437
      8 C           3.2804    2.0459   -0.1241 C.ar    1  UNL1        0.0229
      9 C           3.0538    3.4225   -0.2572 C.ar    1  UNL1        0.1293
     10 O           4.1084    4.2914   -0.5289 O.3     1  UNL1       -0.5063
     11 C           1.7615    3.9340   -0.1185 C.ar    1  UNL1        0.0847
     12 C           0.6910    3.0787    0.1531 C.ar    1  UNL1        0.3708
     13 O          -0.5344    3.5780    0.2726 O.2     1  UNL1       -0.1997
     14 C          -1.6069    2.8285    0.5207 C.ar    1  UNL1        0.4046
     15 C          -1.4673    1.4368    0.7004 C.ar    1  UNL1        0.2288
     16 O          -2.5946    0.6609    1.0208 O.3     1  UNL1       -0.4515
     17 C          -2.6079   -0.7606    1.1487 C.3     1  UNL1        0.2312
     18 O          -2.2151   -1.3300   -0.0938 O.3     1  UNL1       -0.3313
     19 C          -2.4646   -2.7208   -0.1066 C.3     1  UNL1        0.1140
     20 C          -1.6822   -3.3592   -1.2618 C.3     1  UNL1        0.0731
     21 O          -0.3059   -3.1464   -1.0970 O.3     1  UNL1       -0.3924
     22 C          -3.9886   -2.9632   -0.2604 C.3     1  UNL1        0.1120
     23 O          -4.3428   -4.2341    0.2278 O.3     1  UNL1       -0.3865
     24 C          -4.8142   -1.8430    0.4342 C.3     1  UNL1        0.1152
     25 O          -5.1279   -0.8342   -0.4938 O.3     1  UNL1       -0.3864
     26 C          -4.0301   -1.2066    1.6017 C.3     1  UNL1        0.1454
     27 O          -3.9145   -2.1232    2.6611 O.3     1  UNL1       -0.3829
     28 C          -0.1863    0.8751    0.5764 C.ar    1  UNL1        0.0093
     29 C           0.9135    1.6934    0.2939 C.ar    1  UNL1        0.1245
     30 C          -2.9231    3.5004    0.6123 C.ar    1  UNL1        0.0865
     31 C          -3.0249    4.7350    1.2734 C.ar    1  UNL1       -0.0003
     32 C          -4.2541    5.3988    1.3612 C.ar    1  UNL1        0.1591
     33 O          -4.3195    6.6162    2.0380 O.3     1  UNL1       -0.5033
     34 C          -5.3970    4.8343    0.7703 C.ar    1  UNL1        0.1583
     35 O          -6.6246    5.4891    0.8559 O.3     1  UNL1       -0.5033
     36 C          -5.2958    3.6132    0.0908 C.ar    1  UNL1       -0.0157
     37 C          -4.0674    2.9538    0.0048 C.ar    1  UNL1       -0.0418
     38 C           3.4448   -2.3991    0.4127 C.3     1  UNL1        0.1454
     39 O           3.5773   -2.6302    1.7938 O.3     1  UNL1       -0.3829
     40 C           4.4077   -3.2971   -0.4077 C.3     1  UNL1        0.1152
     41 O           3.7591   -3.7081   -1.5857 O.3     1  UNL1       -0.3864
     42 C           5.7092   -2.5440   -0.7739 C.3     1  UNL1        0.1120
     43 O           6.4864   -2.3434    0.3800 O.3     1  UNL1       -0.3865
     44 H           7.5325   -0.5150   -2.9455 H       1  UNL1        0.2095
     45 H           5.1309   -1.9702   -3.4295 H       1  UNL1        0.0584
     46 H           5.3884   -0.1955   -3.3862 H       1  UNL1        0.0584
     47 H           6.0437   -0.3725   -0.9697 H       1  UNL1        0.0647
     48 H           4.4012   -0.4590    0.7760 H       1  UNL1        0.1084
     49 H           4.2893    1.6741   -0.2350 H       1  UNL1        0.0691
     50 H           5.0583    3.9550   -0.6367 H       1  UNL1        0.2921
     51 H           1.5891    4.9979   -0.2248 H       1  UNL1        0.0749
     52 H          -1.8692   -1.0400    1.9348 H       1  UNL1        0.1084
     53 H          -2.0952   -3.1925    0.8360 H       1  UNL1        0.0647
     54 H          -1.8983   -4.4509   -1.3164 H       1  UNL1        0.0584
     55 H          -1.9947   -2.9007   -2.2245 H       1  UNL1        0.0584
     56 H          -0.0025   -3.7770   -0.3928 H       1  UNL1        0.2095
     57 H          -4.2497   -2.9508   -1.3421 H       1  UNL1        0.0647
     58 H          -4.1615   -4.2469    1.2030 H       1  UNL1        0.2100
     59 H          -5.7635   -2.2700    0.8369 H       1  UNL1        0.0648
     60 H          -5.8800   -1.1734   -1.0463 H       1  UNL1        0.2100
     61 H          -4.5939   -0.3138    1.9643 H       1  UNL1        0.0683
     62 H          -4.8039   -2.1726    3.1000 H       1  UNL1        0.2102
     63 H          -0.0419   -0.1880    0.7094 H       1  UNL1        0.0667
     64 H          -2.1506    5.1790    1.7345 H       1  UNL1        0.0664
     65 H          -5.1845    7.1354    2.1291 H       1  UNL1        0.2923
     66 H          -7.4625    5.1027    0.4369 H       1  UNL1        0.2923
     67 H          -6.1684    3.1777   -0.3793 H       1  UNL1        0.0655
     68 H          -4.0098    2.0299   -0.5564 H       1  UNL1        0.0628
     69 H           2.4036   -2.6810    0.1386 H       1  UNL1        0.0683
     70 H           4.5150   -2.4289    2.0476 H       1  UNL1        0.2102
     71 H           4.6595   -4.2009    0.1965 H       1  UNL1        0.0648
     72 H           4.2644   -4.4870   -1.9379 H       1  UNL1        0.2100
     73 H           6.2930   -3.1789   -1.4820 H       1  UNL1        0.0647
     74 H           6.8814   -3.2221    0.6210 H       1  UNL1        0.2100
@<TRIPOS>UNITY_ATOM_ATTR
13 1
charge 1
@<TRIPOS>BOND
     1     1     2    1
     2     2     3    1
     3     3     4    1
     4     4     5    1
     5     5     6    1
     6     6     7    1
     7     7     8   ar
     8     8     9   ar
     9     9    10    1
    10     9    11   ar
    11    11    12   ar
    12    12    13   ar
    13    13    14   ar
    14    14    15   ar
    15    15    16    1
    16    16    17    1
    17    17    18    1
    18    18    19    1
    19    19    20    1
    20    20    21    1
    21    19    22    1
    22    22    23    1
    23    22    24    1
    24    24    25    1
    25    24    26    1
    26    26    27    1
    27    15    28   ar
    28    28    29   ar
    29    14    30    1
    30    30    31   ar
    31    31    32   ar
    32    32    33    1
    33    32    34   ar
    34    34    35    1
    35    34    36   ar
    36    36    37   ar
    37     5    38    1
    38    38    39    1
    39    38    40    1
    40    40    41    1
    41    40    42    1
    42    42    43    1
    43    42     3    1
    44    29     7   ar
    45    37    30   ar
    46    29    12   ar
    47    26    17    1
    48     1    44    1
    49     2    45    1
    50     2    46    1
    51     3    47    1
    52     5    48    1
    53     8    49    1
    54    10    50    1
    55    11    51    1
    56    17    52    1
    57    19    53    1
    58    20    54    1
    59    20    55    1
    60    21    56    1
    61    22    57    1
    62    23    58    1
    63    24    59    1
    64    25    60    1
    65    26    61    1
    66    27    62    1
    67    28    63    1
    68    31    64    1
    69    33    65    1
    70    35    66    1
    71    36    67    1
    72    37    68    1
    73    38    69    1
    74    39    70    1
    75    40    71    1
    76    41    72    1
    77    42    73    1
    78    43    74    1
