@<TRIPOS>MOLECULE
Pinotin A
 74 79 0 0 0
SMALL
GASTEIGER

@<TRIPOS>ATOM
      1 C          -0.7205    2.9897   -0.4595 C.3     1  UNL1        0.1140
      2 C           0.2463    3.6900   -1.4256 C.3     1  UNL1        0.0731
      3 O           1.4982    3.8951   -0.8248 O.3     1  UNL1       -0.3924
      4 O          -0.1261    1.7788   -0.0263 O.3     1  UNL1       -0.3313
      5 C          -1.0460    1.0069    0.7279 C.3     1  UNL1        0.2313
      6 O          -0.4424   -0.2454    1.0400 O.3     1  UNL1       -0.4511
      7 C          -0.1014   -1.1584    0.0383 C.ar    1  UNL1        0.2362
      8 C           1.2117   -1.2070   -0.4522 C.ar    1  UNL1        0.0494
      9 C           2.2851   -0.3408    0.0878 C.2     1  UNL1       -0.0068
     10 C           3.5206   -0.3843   -0.4496 C.2     1  UNL1        0.1364
     11 O           3.7898   -1.2835   -1.4991 O.3     1  UNL1       -0.4544
     12 C           2.8008   -2.1204   -2.0319 C.ar    1  UNL1        0.1487
     13 C           3.0909   -2.9917   -3.0867 C.ar    1  UNL1        0.0234
     14 C           2.0847   -3.8111   -3.6186 C.ar    1  UNL1        0.1293
     15 O           2.3877   -4.6732   -4.6700 O.3     1  UNL1       -0.5063
     16 C           0.7826   -3.7570   -3.0922 C.ar    1  UNL1        0.0847
     17 C           0.4890   -2.8884   -2.0348 C.ar    1  UNL1        0.3714
     18 O          -0.7398   -2.8287   -1.5315 O.2     1  UNL1       -0.1996
     19 C          -1.0711   -2.0195   -0.5241 C.ar    1  UNL1        0.4053
     20 C          -2.4655   -2.0419   -0.0337 C.ar    1  UNL1        0.0900
     21 C          -2.7468   -2.0938    1.3397 C.ar    1  UNL1        0.0002
     22 C          -4.0766   -2.1178    1.7968 C.ar    1  UNL1        0.1658
     23 O          -4.3955   -2.1717    3.1632 O.3     1  UNL1       -0.4913
     24 C          -3.4378   -2.2566    4.2138 C.3     1  UNL1        0.0790
     25 C          -5.1267   -2.0926    0.8682 C.ar    1  UNL1        0.2011
     26 O          -6.4412   -2.1066    1.3378 O.3     1  UNL1       -0.5009
     27 C          -4.8577   -2.0597   -0.5124 C.ar    1  UNL1        0.1658
     28 O          -5.9361   -2.0433   -1.4118 O.3     1  UNL1       -0.4913
     29 C          -5.8065   -2.0067   -2.8294 C.3     1  UNL1        0.0790
     30 C          -3.5216   -2.0443   -0.9539 C.ar    1  UNL1        0.0002
     31 C           1.5052   -2.0760   -1.5049 C.ar    1  UNL1        0.1322
     32 C           4.6200    0.4834    0.0421 C.ar    1  UNL1        0.0210
     33 C           4.3707    1.7559    0.5930 C.ar    1  UNL1       -0.0474
     34 C           5.4282    2.5569    1.0317 C.ar    1  UNL1       -0.0159
     35 C           6.7493    2.1063    0.9204 C.ar    1  UNL1        0.1583
     36 O           7.8061    2.9023    1.3584 O.3     1  UNL1       -0.5033
     37 C           7.0110    0.8496    0.3621 C.ar    1  UNL1        0.1589
     38 O           8.3273    0.4056    0.2485 O.3     1  UNL1       -0.5033
     39 C           5.9502    0.0456   -0.0795 C.ar    1  UNL1       -0.0059
     40 C          -1.4045    1.7249    2.0394 C.3     1  UNL1        0.1454
     41 O          -2.3441    0.9577    2.7456 O.3     1  UNL1       -0.3829
     42 C          -1.9908    3.1159    1.7237 C.3     1  UNL1        0.1152
     43 O          -2.2084    3.8523    2.9017 O.3     1  UNL1       -0.3864
     44 C          -1.0621    3.8835    0.7596 C.3     1  UNL1        0.1120
     45 O          -1.6555    5.0944    0.3596 O.3     1  UNL1       -0.3865
     46 H          -1.6513    2.7766   -1.0367 H       1  UNL1        0.0647
     47 H          -0.1880    4.6492   -1.7913 H       1  UNL1        0.0584
     48 H           0.3908    3.0403   -2.3151 H       1  UNL1        0.0584
     49 H           1.4776    4.7988   -0.4148 H       1  UNL1        0.2095
     50 H          -1.9748    0.8136    0.1406 H       1  UNL1        0.1084
     51 H           2.0686    0.3064    0.9273 H       1  UNL1        0.0662
     52 H           4.0929   -3.0296   -3.4950 H       1  UNL1        0.0691
     53 H           1.6846   -5.2782   -5.0779 H       1  UNL1        0.2921
     54 H           0.0036   -4.3869   -3.5033 H       1  UNL1        0.0749
     55 H          -1.9283   -2.1309    2.0455 H       1  UNL1        0.0664
     56 H          -2.7804   -1.3627    4.2073 H       1  UNL1        0.0660
     57 H          -3.9698   -2.2977    5.1862 H       1  UNL1        0.0660
     58 H          -2.8296   -3.1789    4.1020 H       1  UNL1        0.0660
     59 H          -7.2394   -2.0910    0.7144 H       1  UNL1        0.2924
     60 H          -5.2708   -1.0849   -3.1403 H       1  UNL1        0.0660
     61 H          -6.8175   -2.0003   -3.2855 H       1  UNL1        0.0660
     62 H          -5.2614   -2.9059   -3.1865 H       1  UNL1        0.0660
     63 H          -3.2947   -2.0155   -2.0116 H       1  UNL1        0.0664
     64 H           3.3647    2.1475    0.6645 H       1  UNL1        0.0626
     65 H           5.2196    3.5327    1.4518 H       1  UNL1        0.0655
     66 H           7.6476    3.8167    1.7655 H       1  UNL1        0.2923
     67 H           8.5494   -0.4987   -0.1512 H       1  UNL1        0.2923
     68 H           6.1666   -0.9261   -0.5066 H       1  UNL1        0.0662
     69 H          -0.4703    1.8357    2.6401 H       1  UNL1        0.0683
     70 H          -2.3119    1.2623    3.6898 H       1  UNL1        0.2102
     71 H          -2.9766    2.9707    1.2274 H       1  UNL1        0.0648
     72 H          -1.3311    3.9667    3.3528 H       1  UNL1        0.2100
     73 H          -0.1197    4.1227    1.2995 H       1  UNL1        0.0647
     74 H          -2.4812    4.8729   -0.1456 H       1  UNL1        0.2100
@<TRIPOS>UNITY_ATOM_ATTR
18 1
charge 1
@<TRIPOS>BOND
     1     1     2    1
     2     2     3    1
     3     1     4    1
     4     4     5    1
     5     5     6    1
     6     6     7    1
     7     7     8   ar
     8     8     9    1
     9     9    10    2
    10    10    11    1
    11    11    12    1
    12    12    13   ar
    13    13    14   ar
    14    14    15    1
    15    14    16   ar
    16    16    17   ar
    17    17    18   ar
    18    18    19   ar
    19    19    20    1
    20    20    21   ar
    21    21    22   ar
    22    22    23    1
    23    23    24    1
    24    22    25   ar
    25    25    26    1
    26    25    27   ar
    27    27    28    1
    28    28    29    1
    29    27    30   ar
    30    17    31   ar
    31    10    32    1
    32    32    33   ar
    33    33    34   ar
    34    34    35   ar
    35    35    36    1
    36    35    37   ar
    37    37    38    1
    38    37    39   ar
    39     5    40    1
    40    40    41    1
    41    40    42    1
    42    42    43    1
    43    42    44    1
    44    44    45    1
    45    44     1    1
    46    19     7   ar
    47    30    20   ar
    48    39    32   ar
    49    31     8   ar
    50    31    12   ar
    51     1    46    1
    52     2    47    1
    53     2    48    1
    54     3    49    1
    55     5    50    1
    56     9    51    1
    57    13    52    1
    58    15    53    1
    59    16    54    1
    60    21    55    1
    61    24    56    1
    62    24    57    1
    63    24    58    1
    64    26    59    1
    65    29    60    1
    66    29    61    1
    67    29    62    1
    68    30    63    1
    69    33    64    1
    70    34    65    1
    71    36    66    1
    72    38    67    1
    73    39    68    1
    74    40    69    1
    75    41    70    1
    76    42    71    1
    77    43    72    1
    78    44    73    1
    79    45    74    1
