@<TRIPOS>MOLECULE
Delphinidin 3,5-O-diglucoside
 75 79 0 0 0
SMALL
GASTEIGER

@<TRIPOS>ATOM
      1 O           2.8114   -5.4165   -0.4154 O.3     1  UNL1       -0.3924
      2 C           2.8937   -4.5474    0.6808 C.3     1  UNL1        0.0731
      3 C           2.8661   -3.0902    0.2046 C.3     1  UNL1        0.1140
      4 O           2.7583   -2.2554    1.3492 O.3     1  UNL1       -0.3313
      5 C           2.8731   -0.8955    0.9818 C.3     1  UNL1        0.2308
      6 O           2.4417   -0.0950    2.0816 O.3     1  UNL1       -0.4598
      7 C           2.2318    1.2826    1.9678 C.ar    1  UNL1        0.1437
      8 C           3.2251    2.1580    2.4254 C.ar    1  UNL1        0.0229
      9 C           3.0591    3.5440    2.3144 C.ar    1  UNL1        0.1293
     10 O           4.0533    4.4150    2.7544 O.3     1  UNL1       -0.5063
     11 C           1.8862    4.0616    1.7597 C.ar    1  UNL1        0.0847
     12 C           0.8727    3.2024    1.3249 C.ar    1  UNL1        0.3708
     13 O          -0.2485    3.7132    0.8310 O.2     1  UNL1       -0.1997
     14 C          -1.2698    2.9669    0.4186 C.ar    1  UNL1        0.4047
     15 C          -1.1810    1.5602    0.4678 C.ar    1  UNL1        0.2288
     16 O          -2.2512    0.7887   -0.0130 O.3     1  UNL1       -0.4515
     17 C          -2.2734   -0.6316   -0.1381 C.3     1  UNL1        0.2312
     18 O          -1.3715   -1.0219   -1.1567 O.3     1  UNL1       -0.3313
     19 C          -1.1764   -2.4312   -1.1507 C.3     1  UNL1        0.1140
     20 C          -0.3755   -2.7964   -2.4126 C.3     1  UNL1        0.0731
     21 O          -0.0930   -4.1700   -2.4611 O.3     1  UNL1       -0.3924
     22 C          -2.5202   -3.2296   -1.0812 C.3     1  UNL1        0.1120
     23 O          -2.6728   -3.7622    0.2112 O.3     1  UNL1       -0.3865
     24 C          -3.7162   -2.3133   -1.4111 C.3     1  UNL1        0.1152
     25 O          -3.6485   -1.9087   -2.7557 O.3     1  UNL1       -0.3864
     26 C          -3.7123   -1.0618   -0.5035 C.3     1  UNL1        0.1454
     27 O          -4.4269   -1.3162    0.6795 O.3     1  UNL1       -0.3829
     28 C          -0.0101    0.9828    0.9867 C.ar    1  UNL1        0.0093
     29 C           1.0387    1.8040    1.4232 C.ar    1  UNL1        0.1245
     30 C          -2.4730    3.6574   -0.1000 C.ar    1  UNL1        0.0899
     31 C          -3.7648    3.2496    0.2673 C.ar    1  UNL1       -0.0000
     32 C          -4.8894    3.9230   -0.2249 C.ar    1  UNL1        0.1628
     33 O          -6.1694    3.5035    0.1348 O.3     1  UNL1       -0.5032
     34 C          -4.7373    5.0246   -1.0788 C.ar    1  UNL1        0.2006
     35 O          -5.8922    5.6566   -1.5467 O.3     1  UNL1       -0.5009
     36 C          -3.4371    5.4578   -1.4325 C.ar    1  UNL1        0.1628
     37 O          -3.2080    6.5535   -2.2676 O.3     1  UNL1       -0.5032
     38 C          -2.3220    4.7738   -0.9345 C.ar    1  UNL1       -0.0000
     39 C           4.3441   -0.5710    0.6261 C.3     1  UNL1        0.1454
     40 O           4.3669    0.4553   -0.3332 O.3     1  UNL1       -0.3829
     41 C           5.0833   -1.8227    0.0858 C.3     1  UNL1        0.1152
     42 O           5.6557   -2.5392    1.1513 O.3     1  UNL1       -0.3864
     43 C           4.1151   -2.7507   -0.6738 C.3     1  UNL1        0.1120
     44 O           3.6878   -2.1233   -1.8575 O.3     1  UNL1       -0.3865
     45 H           2.8388   -6.3350   -0.0408 H       1  UNL1        0.2095
     46 H           3.8305   -4.7399    1.2508 H       1  UNL1        0.0584
     47 H           2.0264   -4.7252    1.3558 H       1  UNL1        0.0584
     48 H           1.9422   -2.9729   -0.4027 H       1  UNL1        0.0647
     49 H           2.2122   -0.6761    0.1085 H       1  UNL1        0.1084
     50 H           4.1325    1.7585    2.8599 H       1  UNL1        0.0691
     51 H           4.9157    4.0722    3.1612 H       1  UNL1        0.2921
     52 H           1.7566    5.1339    1.6793 H       1  UNL1        0.0749
     53 H          -1.9871   -1.0825    0.8419 H       1  UNL1        0.1084
     54 H          -0.5398   -2.6970   -0.2755 H       1  UNL1        0.0647
     55 H           0.5729   -2.2130   -2.4401 H       1  UNL1        0.0584
     56 H          -0.9611   -2.5223   -3.3158 H       1  UNL1        0.0584
     57 H           0.5947   -4.3468   -1.7694 H       1  UNL1        0.2095
     58 H          -2.5142   -4.0727   -1.8114 H       1  UNL1        0.0647
     59 H          -3.3820   -4.4552    0.1580 H       1  UNL1        0.2100
     60 H          -4.6674   -2.8749   -1.2532 H       1  UNL1        0.0648
     61 H          -3.9142   -2.6909   -3.3066 H       1  UNL1        0.2100
     62 H          -4.2074   -0.2263   -1.0556 H       1  UNL1        0.0683
     63 H          -5.3919   -1.2715    0.4495 H       1  UNL1        0.2102
     64 H           0.0806   -0.0916    1.0566 H       1  UNL1        0.0667
     65 H          -3.9041    2.4232    0.9528 H       1  UNL1        0.0664
     66 H          -6.3155    2.7102    0.7483 H       1  UNL1        0.2923
     67 H          -5.8898    6.4512   -2.1696 H       1  UNL1        0.2924
     68 H          -3.9398    7.1186   -2.6731 H       1  UNL1        0.2923
     69 H          -1.3303    5.1102   -1.2133 H       1  UNL1        0.0664
     70 H           4.8660   -0.2240    1.5490 H       1  UNL1        0.0683
     71 H           5.2730    0.8601   -0.3005 H       1  UNL1        0.2102
     72 H           5.8943   -1.5102   -0.6142 H       1  UNL1        0.0648
     73 H           6.4743   -2.0471    1.4231 H       1  UNL1        0.2100
     74 H           4.6655   -3.6833   -0.9439 H       1  UNL1        0.0647
     75 H           4.4452   -2.1647   -2.4984 H       1  UNL1        0.2100
@<TRIPOS>UNITY_ATOM_ATTR
13 1
charge 1
@<TRIPOS>BOND
     1     1     2    1
     2     2     3    1
     3     3     4    1
     4     4     5    1
     5     5     6    1
     6     6     7    1
     7     7     8   ar
     8     8     9   ar
     9     9    10    1
    10     9    11   ar
    11    11    12   ar
    12    12    13   ar
    13    13    14   ar
    14    14    15   ar
    15    15    16    1
    16    16    17    1
    17    17    18    1
    18    18    19    1
    19    19    20    1
    20    20    21    1
    21    19    22    1
    22    22    23    1
    23    22    24    1
    24    24    25    1
    25    24    26    1
    26    26    27    1
    27    15    28   ar
    28    28    29   ar
    29    14    30    1
    30    30    31   ar
    31    31    32   ar
    32    32    33    1
    33    32    34   ar
    34    34    35    1
    35    34    36   ar
    36    36    37    1
    37    36    38   ar
    38     5    39    1
    39    39    40    1
    40    39    41    1
    41    41    42    1
    42    41    43    1
    43    43    44    1
    44    43     3    1
    45    29     7   ar
    46    38    30   ar
    47    29    12   ar
    48    26    17    1
    49     1    45    1
    50     2    46    1
    51     2    47    1
    52     3    48    1
    53     5    49    1
    54     8    50    1
    55    10    51    1
    56    11    52    1
    57    17    53    1
    58    19    54    1
    59    20    55    1
    60    20    56    1
    61    21    57    1
    62    22    58    1
    63    23    59    1
    64    24    60    1
    65    25    61    1
    66    26    62    1
    67    27    63    1
    68    28    64    1
    69    31    65    1
    70    33    66    1
    71    35    67    1
    72    37    68    1
    73    38    69    1
    74    39    70    1
    75    40    71    1
    76    41    72    1
    77    42    73    1
    78    43    74    1
    79    44    75    1
