@<TRIPOS>MOLECULE
Pelargonidin 3,5-O-diglucoside
 74 77 0 0 0
SMALL
GASTEIGER

@<TRIPOS>ATOM
      1 CL          0.0000    0.0000    0.0000 Cl      1  UNL1        0.0000
      2 O           5.4479   -1.6791   -3.7704 O.3     2  UNL2       -0.3924
      3 C           4.4232   -1.2511   -2.9112 C.3     2  UNL2        0.0731
      4 C           4.9521   -1.0833   -1.4746 C.3     2  UNL2        0.1140
      5 O           4.0259   -0.2999   -0.7235 O.3     2  UNL2       -0.3313
      6 C           3.2798   -0.9829    0.2770 C.3     2  UNL2        0.2308
      7 O           2.0672   -0.2661    0.5050 O.3     2  UNL2       -0.4598
      8 C           1.9754    1.0498    0.9915 C.ar    2  UNL2        0.1437
      9 C           3.1140    1.7800    1.3877 C.ar    2  UNL2        0.0229
     10 C           2.9919    3.0926    1.8544 C.ar    2  UNL2        0.1293
     11 O           4.1333    3.7923    2.2398 O.3     2  UNL2       -0.5063
     12 C           1.7303    3.6937    1.9292 C.ar    2  UNL2        0.0847
     13 C           0.5902    2.9851    1.5428 C.ar    2  UNL2        0.3708
     14 O          -0.5995    3.5709    1.6082 O.2     2  UNL2       -0.1997
     15 C          -1.7310    2.9673    1.2506 C.ar    2  UNL2        0.4045
     16 C          -1.7092    1.6280    0.8065 C.ar    2  UNL2        0.2288
     17 O          -2.9262    0.9879    0.4982 O.3     2  UNL2       -0.4515
     18 C          -3.1058   -0.3162   -0.0630 C.3     2  UNL2        0.2312
     19 O          -2.4503   -1.2817    0.7406 O.3     2  UNL2       -0.3313
     20 C          -2.7484   -2.5935    0.2942 C.3     2  UNL2        0.1140
     21 C          -2.1435   -3.5838    1.3037 C.3     2  UNL2        0.0731
     22 O          -2.5671   -4.8960    1.0477 O.3     2  UNL2       -0.3924
     23 C          -2.1812   -2.8139   -1.1295 C.3     2  UNL2        0.1120
     24 O          -2.5022   -4.1069   -1.5759 O.3     2  UNL2       -0.3865
     25 C          -2.7861   -1.7738   -2.0931 C.3     2  UNL2        0.1152
     26 O          -2.1496   -1.8505   -3.3433 O.3     2  UNL2       -0.3864
     27 C          -2.6128   -0.3558   -1.5248 C.3     2  UNL2        0.1454
     28 O          -3.3591    0.5599   -2.2847 O.3     2  UNL2       -0.3829
     29 C          -0.4647    0.9796    0.7240 C.ar    2  UNL2        0.0093
     30 C           0.7066    1.6583    1.0818 C.ar    2  UNL2        0.1245
     31 C          -2.9909    3.7381    1.3485 C.ar    2  UNL2        0.0830
     32 C          -3.2126    4.5630    2.4636 C.ar    2  UNL2       -0.0420
     33 C          -4.3866    5.3157    2.5650 C.ar    2  UNL2       -0.0193
     34 C          -5.3447    5.2659    1.5481 C.ar    2  UNL2        0.1169
     35 O          -6.5100    6.0204    1.6629 O.3     2  UNL2       -0.5068
     36 C          -5.1216    4.4623    0.4224 C.ar    2  UNL2       -0.0193
     37 C          -3.9489    3.7082    0.3185 C.ar    2  UNL2       -0.0420
     38 C           2.9225   -2.4268   -0.1100 C.3     2  UNL2        0.1454
     39 O           2.1087   -3.0060    0.8788 O.3     2  UNL2       -0.3829
     40 C           4.2094   -3.2570   -0.2467 C.3     2  UNL2        0.1152
     41 O           3.9685   -4.4153   -1.0080 O.3     2  UNL2       -0.3864
     42 C           5.3914   -2.4345   -0.8283 C.3     2  UNL2        0.1120
     43 O           6.3744   -2.2128    0.1551 O.3     2  UNL2       -0.3865
     44 H           5.3303   -2.6559   -3.9023 H       2  UNL2        0.2095
     45 H           3.5521   -1.9405   -2.9484 H       2  UNL2        0.0584
     46 H           4.0651   -0.2645   -3.2752 H       2  UNL2        0.0584
     47 H           5.8732   -0.4661   -1.5673 H       2  UNL2        0.0647
     48 H           3.8541   -0.9997    1.2285 H       2  UNL2        0.1084
     49 H           4.1010    1.3415    1.3392 H       2  UNL2        0.0691
     50 H           4.0808    4.7447    2.5818 H       2  UNL2        0.2921
     51 H           1.6354    4.7120    2.2856 H       2  UNL2        0.0749
     52 H          -4.2040   -0.5072   -0.0558 H       2  UNL2        0.1084
     53 H          -3.8523   -2.7563    0.2895 H       2  UNL2        0.0647
     54 H          -1.0356   -3.5480    1.2523 H       2  UNL2        0.0584
     55 H          -2.4353   -3.2896    2.3381 H       2  UNL2        0.0584
     56 H          -3.5072   -4.9581    1.3607 H       2  UNL2        0.2095
     57 H          -1.0727   -2.6788   -1.0934 H       2  UNL2        0.0647
     58 H          -1.8108   -4.3641   -2.2402 H       2  UNL2        0.2100
     59 H          -3.8793   -1.9744   -2.2070 H       2  UNL2        0.0648
     60 H          -2.5937   -2.5794   -3.8504 H       2  UNL2        0.2100
     61 H          -1.5346   -0.0839   -1.5637 H       2  UNL2        0.0683
     62 H          -2.8356    0.7480   -3.1071 H       2  UNL2        0.2102
     63 H          -0.3978   -0.0467    0.3988 H       2  UNL2        0.0667
     64 H          -2.4820    4.6148    3.2617 H       2  UNL2        0.0628
     65 H          -4.5510    5.9397    3.4342 H       2  UNL2        0.0654
     66 H          -7.2226    6.0068    0.9425 H       2  UNL2        0.2921
     67 H          -5.8517    4.4282   -0.3763 H       2  UNL2        0.0654
     68 H          -3.7822    3.1221   -0.5763 H       2  UNL2        0.0628
     69 H           2.3731   -2.4122   -1.0792 H       2  UNL2        0.0683
     70 H           1.1812   -2.6960    0.7093 H       2  UNL2        0.2102
     71 H           4.5012   -3.5999    0.7716 H       2  UNL2        0.0648
     72 H           3.7476   -4.1293   -1.9324 H       2  UNL2        0.2100
     73 H           5.8917   -3.0472   -1.6085 H       2  UNL2        0.0647
     74 H           6.0008   -1.5920    0.8311 H       2  UNL2        0.2100
@<TRIPOS>UNITY_ATOM_ATTR
1 1
charge -1
14 1
charge 1
@<TRIPOS>BOND
     1     2     3    1
     2     3     4    1
     3     4     5    1
     4     5     6    1
     5     6     7    1
     6     7     8    1
     7     8     9   ar
     8     9    10   ar
     9    10    11    1
    10    10    12   ar
    11    12    13   ar
    12    13    14   ar
    13    14    15   ar
    14    15    16   ar
    15    16    17    1
    16    17    18    1
    17    18    19    1
    18    19    20    1
    19    20    21    1
    20    21    22    1
    21    20    23    1
    22    23    24    1
    23    23    25    1
    24    25    26    1
    25    25    27    1
    26    27    28    1
    27    16    29   ar
    28    29    30   ar
    29    15    31    1
    30    31    32   ar
    31    32    33   ar
    32    33    34   ar
    33    34    35    1
    34    34    36   ar
    35    36    37   ar
    36     6    38    1
    37    38    39    1
    38    38    40    1
    39    40    41    1
    40    40    42    1
    41    42    43    1
    42    42     4    1
    43    30     8   ar
    44    37    31   ar
    45    30    13   ar
    46    27    18    1
    47     2    44    1
    48     3    45    1
    49     3    46    1
    50     4    47    1
    51     6    48    1
    52     9    49    1
    53    11    50    1
    54    12    51    1
    55    18    52    1
    56    20    53    1
    57    21    54    1
    58    21    55    1
    59    22    56    1
    60    23    57    1
    61    24    58    1
    62    25    59    1
    63    26    60    1
    64    27    61    1
    65    28    62    1
    66    29    63    1
    67    32    64    1
    68    33    65    1
    69    35    66    1
    70    36    67    1
    71    37    68    1
    72    38    69    1
    73    39    70    1
    74    40    71    1
    75    41    72    1
    76    42    73    1
    77    43    74    1
