@<TRIPOS>MOLECULE
Malvidin 3-O-(6''-caffeoyl-glucoside)
 78 82 0 0 0
SMALL
GASTEIGER

@<TRIPOS>ATOM
      1 C           1.3891    0.2829   -0.0848 C.3     1  UNL1        0.1250
      2 C           2.1977   -0.2153    1.1195 C.3     1  UNL1        0.1215
      3 O           3.4956   -0.6318    0.7069 O.3     1  UNL1       -0.4589
      4 C           4.4512   -1.1303    1.5983 C.2     1  UNL1        0.3320
      5 O           4.1783   -1.2529    2.8232 O.2     1  UNL1       -0.2456
      6 C           5.7864   -1.5180    1.1179 C.2     1  UNL1        0.0231
      7 C           6.1447   -1.3746   -0.1653 C.2     1  UNL1       -0.0477
      8 C           7.4833   -1.7366   -0.6932 C.ar    1  UNL1       -0.0211
      9 C           8.3282   -2.6622   -0.0482 C.ar    1  UNL1       -0.0094
     10 C           9.5793   -2.9831   -0.5885 C.ar    1  UNL1        0.1588
     11 O          10.3898   -3.9010    0.0791 O.3     1  UNL1       -0.5033
     12 C           9.9979   -2.3854   -1.7886 C.ar    1  UNL1        0.1582
     13 O          11.2442   -2.6986   -2.3289 O.3     1  UNL1       -0.5033
     14 C           9.1556   -1.4769   -2.4412 C.ar    1  UNL1       -0.0160
     15 C           7.9070   -1.1598   -1.9011 C.ar    1  UNL1       -0.0509
     16 O           0.0533    0.4868    0.3436 O.3     1  UNL1       -0.3302
     17 C          -0.7840    0.7800   -0.7606 C.3     1  UNL1        0.2313
     18 O          -2.1346    0.8589   -0.3108 O.3     1  UNL1       -0.4515
     19 C          -2.8612   -0.1978    0.2634 C.ar    1  UNL1        0.2288
     20 C          -2.3423   -1.5004    0.3492 C.ar    1  UNL1        0.0093
     21 C          -3.1238   -2.5289    0.8872 C.ar    1  UNL1        0.1241
     22 C          -4.4266   -2.2152    1.3274 C.ar    1  UNL1        0.3708
     23 C          -5.2439   -3.2160    1.8619 C.ar    1  UNL1        0.0847
     24 C          -4.7724   -4.5311    1.9645 C.ar    1  UNL1        0.1293
     25 O          -5.5796   -5.5341    2.4964 O.3     1  UNL1       -0.5063
     26 C          -3.4801   -4.8442    1.5305 C.ar    1  UNL1        0.0225
     27 C          -2.6496   -3.8510    0.9907 C.ar    1  UNL1        0.1366
     28 O          -1.3629   -4.1772    0.5608 O.3     1  UNL1       -0.5057
     29 O          -4.8836   -0.9711    1.2395 O.2     1  UNL1       -0.1997
     30 C          -4.1654    0.0367    0.7477 C.ar    1  UNL1        0.4047
     31 C          -4.7820    1.3834    0.7139 C.ar    1  UNL1        0.0899
     32 C          -6.1293    1.5154    0.3504 C.ar    1  UNL1        0.0002
     33 C          -6.7432    2.7808    0.3180 C.ar    1  UNL1        0.1658
     34 O          -8.0869    2.9491   -0.0528 O.3     1  UNL1       -0.4913
     35 C          -8.9603    1.8883   -0.4268 C.3     1  UNL1        0.0790
     36 C          -6.0004    3.9184    0.6636 C.ar    1  UNL1        0.2011
     37 O          -6.6217    5.1676    0.6196 O.3     1  UNL1       -0.5009
     38 C          -4.6533    3.7999    1.0505 C.ar    1  UNL1        0.1658
     39 O          -3.9425    4.9614    1.3941 O.3     1  UNL1       -0.4913
     40 C          -2.5692    4.9876    1.7707 C.3     1  UNL1        0.0790
     41 C          -4.0560    2.5266    1.0853 C.ar    1  UNL1        0.0002
     42 C          -0.3890    2.1380   -1.3685 C.3     1  UNL1        0.1454
     43 O          -1.2295    2.4693   -2.4462 O.3     1  UNL1       -0.3829
     44 C           1.0886    2.1104   -1.8067 C.3     1  UNL1        0.1152
     45 O           1.5033    3.4004   -2.1754 O.3     1  UNL1       -0.3864
     46 C           1.9737    1.6000   -0.6547 C.3     1  UNL1        0.1130
     47 O           3.2772    1.3785   -1.1302 O.3     1  UNL1       -0.3864
     48 H           1.4293   -0.5164   -0.8627 H       1  UNL1        0.0658
     49 H           1.6693   -1.0801    1.5779 H       1  UNL1        0.0725
     50 H           2.2829    0.5901    1.8819 H       1  UNL1        0.0725
     51 H           6.4866   -1.8991    1.8486 H       1  UNL1        0.0689
     52 H           5.4410   -0.9300   -0.8599 H       1  UNL1        0.0626
     53 H           8.0204   -3.1608    0.8605 H       1  UNL1        0.0661
     54 H          11.3021   -4.1680   -0.2708 H       1  UNL1        0.2923
     55 H          11.5676   -2.2814   -3.1939 H       1  UNL1        0.2923
     56 H           9.4677   -1.0152   -3.3694 H       1  UNL1        0.0655
     57 H           7.2731   -0.4539   -2.4242 H       1  UNL1        0.0625
     58 H          -0.7177   -0.0150   -1.5403 H       1  UNL1        0.1084
     59 H          -1.3461   -1.7171   -0.0111 H       1  UNL1        0.0667
     60 H          -6.2438   -2.9710    2.1983 H       1  UNL1        0.0749
     61 H          -6.5203   -5.3410    2.8200 H       1  UNL1        0.2921
     62 H          -3.1217   -5.8627    1.6129 H       1  UNL1        0.0691
     63 H          -1.0041   -5.1226    0.6276 H       1  UNL1        0.2922
     64 H          -6.6896    0.6300    0.0802 H       1  UNL1        0.0664
     65 H          -8.5674    1.3694   -1.3266 H       1  UNL1        0.0660
     66 H          -9.9584    2.3083   -0.6669 H       1  UNL1        0.0660
     67 H          -9.0698    1.1697    0.4128 H       1  UNL1        0.0660
     68 H          -6.1355    6.0233    0.8588 H       1  UNL1        0.2924
     69 H          -2.2674    6.0367    1.9669 H       1  UNL1        0.0660
     70 H          -1.9400    4.5845    0.9492 H       1  UNL1        0.0660
     71 H          -2.4156    4.3952    2.6973 H       1  UNL1        0.0660
     72 H          -3.0345    2.4188    1.4220 H       1  UNL1        0.0664
     73 H          -0.5119    2.9187   -0.5850 H       1  UNL1        0.0683
     74 H          -1.1273    1.7630   -3.1367 H       1  UNL1        0.2102
     75 H           1.2062    1.4123   -2.6704 H       1  UNL1        0.0648
     76 H           1.1558    3.5636   -3.0909 H       1  UNL1        0.2100
     77 H           1.9864    2.3624    0.1612 H       1  UNL1        0.0647
     78 H           3.7313    2.2611   -1.1503 H       1  UNL1        0.2100
@<TRIPOS>UNITY_ATOM_ATTR
29 1
charge 1
@<TRIPOS>BOND
     1     1     2    1
     2     2     3    1
     3     3     4    1
     4     4     5    2
     5     4     6    1
     6     6     7    2
     7     7     8    1
     8     8     9   ar
     9     9    10   ar
    10    10    11    1
    11    10    12   ar
    12    12    13    1
    13    12    14   ar
    14    14    15   ar
    15     1    16    1
    16    16    17    1
    17    17    18    1
    18    18    19    1
    19    19    20   ar
    20    20    21   ar
    21    21    22   ar
    22    22    23   ar
    23    23    24   ar
    24    24    25    1
    25    24    26   ar
    26    26    27   ar
    27    27    28    1
    28    22    29   ar
    29    29    30   ar
    30    30    31    1
    31    31    32   ar
    32    32    33   ar
    33    33    34    1
    34    34    35    1
    35    33    36   ar
    36    36    37    1
    37    36    38   ar
    38    38    39    1
    39    39    40    1
    40    38    41   ar
    41    17    42    1
    42    42    43    1
    43    42    44    1
    44    44    45    1
    45    44    46    1
    46    46    47    1
    47    46     1    1
    48    15     8   ar
    49    30    19   ar
    50    41    31   ar
    51    27    21   ar
    52     1    48    1
    53     2    49    1
    54     2    50    1
    55     6    51    1
    56     7    52    1
    57     9    53    1
    58    11    54    1
    59    13    55    1
    60    14    56    1
    61    15    57    1
    62    17    58    1
    63    20    59    1
    64    23    60    1
    65    25    61    1
    66    26    62    1
    67    28    63    1
    68    32    64    1
    69    35    65    1
    70    35    66    1
    71    35    67    1
    72    37    68    1
    73    40    69    1
    74    40    70    1
    75    40    71    1
    76    41    72    1
    77    42    73    1
    78    43    74    1
    79    44    75    1
    80    45    76    1
    81    46    77    1
    82    47    78    1
