@<TRIPOS>MOLECULE
Cyanidin 3-O-(6''-dioxalyl-glucoside)
 62 65 0 0 0
SMALL
GASTEIGER

@<TRIPOS>ATOM
      1 O           2.0228   -2.7112    2.7496 O.3     1  UNL1       -0.3864
      2 C           1.8459   -1.8560    1.6464 C.3     1  UNL1        0.1152
      3 C           2.4465   -2.4589    0.3592 C.3     1  UNL1        0.1130
      4 O           3.8414   -2.5738    0.4807 O.3     1  UNL1       -0.3864
      5 C           2.0840   -1.6009   -0.8800 C.3     1  UNL1        0.1250
      6 C           2.9064   -0.3008   -1.0254 C.3     1  UNL1        0.1217
      7 O           4.2339   -0.6060   -1.4439 O.3     1  UNL1       -0.4539
      8 C           5.2030    0.3783   -1.6589 C.2     1  UNL1        0.4179
      9 O           4.9273    1.5978   -1.4935 O.2     1  UNL1       -0.2376
     10 C           6.5511   -0.0115   -2.0789 C.2     1  UNL1        0.4249
     11 O           6.8210   -1.2325   -2.2407 O.2     1  UNL1       -0.2370
     12 O           7.5183    0.9803   -2.2933 O.3     1  UNL1       -0.3807
     13 C           8.8398    0.7406   -2.6946 C.2     1  UNL1        0.3624
     14 O           9.2585   -0.4315   -2.8964 O.2     1  UNL1       -0.2431
     15 C           9.7501    1.8732   -2.8826 C.2     1  UNL1        0.1515
     16 O          11.0637    1.6566   -3.2801 O.co2   1  UNL1       -0.5392
     17 O           9.3458    3.0489   -2.6847 O.co2   1  UNL1       -0.5392
     18 O           0.6837   -1.3616   -0.9656 O.3     1  UNL1       -0.3302
     19 C           0.1737   -0.6679    0.1632 C.3     1  UNL1        0.2313
     20 O          -1.2176   -0.4320   -0.0622 O.3     1  UNL1       -0.4515
     21 C          -2.0498    0.4336    0.6723 C.ar    1  UNL1        0.2288
     22 C          -1.5469    1.3421    1.6200 C.ar    1  UNL1        0.0093
     23 C          -2.4148    2.2209    2.2890 C.ar    1  UNL1        0.1241
     24 C          -1.9782    3.1628    3.2580 C.ar    1  UNL1        0.1366
     25 O          -0.6444    3.2903    3.6573 O.3     1  UNL1       -0.5057
     26 C          -2.9131    4.0145    3.8595 C.ar    1  UNL1        0.0225
     27 C          -4.2692    3.9452    3.5222 C.ar    1  UNL1        0.1293
     28 O          -5.1949    4.7945    4.1244 O.3     1  UNL1       -0.5063
     29 C          -4.7021    3.0173    2.5750 C.ar    1  UNL1        0.0847
     30 C          -3.7887    2.1579    1.9590 C.ar    1  UNL1        0.3708
     31 O          -4.2293    1.2835    1.0626 O.2     1  UNL1       -0.1997
     32 C          -3.4370    0.4252    0.4276 C.ar    1  UNL1        0.4046
     33 C          -4.0561   -0.5093   -0.5394 C.ar    1  UNL1        0.0865
     34 C          -3.6998   -1.8692   -0.5725 C.ar    1  UNL1       -0.0418
     35 C          -4.3116   -2.7377   -1.4800 C.ar    1  UNL1       -0.0157
     36 C          -5.2970   -2.2641   -2.3559 C.ar    1  UNL1        0.1583
     37 O          -5.9083   -3.1269   -3.2638 O.3     1  UNL1       -0.5033
     38 C          -5.6741   -0.9160   -2.3161 C.ar    1  UNL1        0.1591
     39 O          -6.6600   -0.4490   -3.1836 O.3     1  UNL1       -0.5033
     40 C          -5.0598   -0.0447   -1.4049 C.ar    1  UNL1       -0.0003
     41 C           0.3590   -1.5003    1.4541 C.3     1  UNL1        0.1454
     42 O          -0.4582   -2.6475    1.4469 O.3     1  UNL1       -0.3829
     43 H           1.6278   -3.5928    2.5213 H       1  UNL1        0.2100
     44 H           2.3903   -0.9140    1.8749 H       1  UNL1        0.0648
     45 H           2.0109   -3.4723    0.1929 H       1  UNL1        0.0647
     46 H           4.0178   -3.3615    1.0586 H       1  UNL1        0.2100
     47 H           2.3397   -2.2204   -1.7680 H       1  UNL1        0.0658
     48 H           2.4279    0.3467   -1.7924 H       1  UNL1        0.0725
     49 H           2.9456    0.2579   -0.0670 H       1  UNL1        0.0725
     50 H           0.6830    0.3142    0.2560 H       1  UNL1        0.1084
     51 H          -0.4899    1.3698    1.8090 H       1  UNL1        0.0667
     52 H           0.1133    2.7174    3.3158 H       1  UNL1        0.2922
     53 H          -2.5806    4.7342    4.5974 H       1  UNL1        0.0691
     54 H          -4.9138    5.4794    4.8163 H       1  UNL1        0.2921
     55 H          -5.7526    2.9638    2.3162 H       1  UNL1        0.0749
     56 H          -2.9670   -2.2666    0.1175 H       1  UNL1        0.0628
     57 H          -4.0250   -3.7816   -1.4958 H       1  UNL1        0.0655
     58 H          -5.6572   -4.1073   -3.3147 H       1  UNL1        0.2923
     59 H          -6.9548    0.5205   -3.1787 H       1  UNL1        0.2923
     60 H          -5.3567    0.9970   -1.3812 H       1  UNL1        0.0664
     61 H           0.0509   -0.8836    2.3243 H       1  UNL1        0.0683
     62 H          -0.2748   -3.1551    0.6150 H       1  UNL1        0.2102
@<TRIPOS>UNITY_ATOM_ATTR
16 1
charge -1
31 1
charge 1
@<TRIPOS>BOND
     1     1     2    1
     2     2     3    1
     3     3     4    1
     4     3     5    1
     5     5     6    1
     6     6     7    1
     7     7     8    1
     8     8     9    2
     9     8    10    1
    10    10    11    2
    11    10    12    1
    12    12    13    1
    13    13    14    2
    14    13    15    1
    15    15    16   ar
    16    15    17   ar
    17     5    18    1
    18    18    19    1
    19    19    20    1
    20    20    21    1
    21    21    22   ar
    22    22    23   ar
    23    23    24   ar
    24    24    25    1
    25    24    26   ar
    26    26    27   ar
    27    27    28    1
    28    27    29   ar
    29    29    30   ar
    30    30    31   ar
    31    31    32   ar
    32    32    33    1
    33    33    34   ar
    34    34    35   ar
    35    35    36   ar
    36    36    37    1
    37    36    38   ar
    38    38    39    1
    39    38    40   ar
    40    19    41    1
    41    41    42    1
    42    41     2    1
    43    32    21   ar
    44    40    33   ar
    45    30    23   ar
    46     1    43    1
    47     2    44    1
    48     3    45    1
    49     4    46    1
    50     5    47    1
    51     6    48    1
    52     6    49    1
    53    19    50    1
    54    22    51    1
    55    25    52    1
    56    26    53    1
    57    28    54    1
    58    29    55    1
    59    34    56    1
    60    35    57    1
    61    37    58    1
    62    39    59    1
    63    40    60    1
    64    41    61    1
    65    42    62    1
