@<TRIPOS>MOLECULE
Delphinidin 3-O-glucosyl-glucoside
 75 79 0 0 0
SMALL
GASTEIGER

@<TRIPOS>ATOM
      1 O           0.4911   -2.6075   -0.9286 O.3     1  UNL1       -0.3924
      2 C           1.4575   -2.5024   -1.9393 C.3     1  UNL1        0.0730
      3 C           2.7226   -1.7980   -1.4269 C.3     1  UNL1        0.1130
      4 O           2.3675   -0.5154   -0.9394 O.3     1  UNL1       -0.3405
      5 C           3.5305    0.2504   -0.6577 C.3     1  UNL1        0.1880
      6 O           3.1428    1.5500   -0.2605 O.3     1  UNL1       -0.3460
      7 C           2.6404    2.2952   -1.3567 C.3     1  UNL1        0.0796
      8 C           1.3410    2.9989   -0.9493 C.3     1  UNL1        0.1144
      9 O           0.3938    2.0027   -0.5931 O.3     1  UNL1       -0.3313
     10 C          -0.7916    2.5990   -0.1035 C.3     1  UNL1        0.2312
     11 O          -1.8489    1.6356   -0.0753 O.3     1  UNL1       -0.4515
     12 C          -1.8158    0.3488    0.4973 C.ar    1  UNL1        0.2288
     13 C          -0.7013   -0.1430    1.1980 C.ar    1  UNL1        0.0093
     14 C          -0.7109   -1.4480    1.7025 C.ar    1  UNL1        0.1241
     15 C           0.3800   -1.9816    2.4153 C.ar    1  UNL1        0.1366
     16 O           1.5022   -1.1984    2.6826 O.3     1  UNL1       -0.5057
     17 C           0.3330   -3.3103    2.8614 C.ar    1  UNL1        0.0225
     18 C          -0.7921   -4.1030    2.6136 C.ar    1  UNL1        0.1293
     19 O          -0.8159   -5.4208    3.0644 O.3     1  UNL1       -0.5063
     20 C          -1.8839   -3.5673    1.9187 C.ar    1  UNL1        0.0847
     21 C          -1.8487   -2.2454    1.4645 C.ar    1  UNL1        0.3708
     22 O          -2.8908   -1.7479    0.8096 O.2     1  UNL1       -0.1997
     23 C          -2.9310   -0.5020    0.3415 C.ar    1  UNL1        0.4047
     24 C          -4.1593   -0.0604   -0.3565 C.ar    1  UNL1        0.0899
     25 C          -4.7993   -0.9332   -1.2461 C.ar    1  UNL1       -0.0000
     26 C          -5.9718   -0.5440   -1.9054 C.ar    1  UNL1        0.1628
     27 O          -6.5928   -1.4132   -2.8012 O.3     1  UNL1       -0.5032
     28 C          -6.5290    0.7210   -1.6704 C.ar    1  UNL1        0.2006
     29 O          -7.6952    1.0627   -2.3599 O.3     1  UNL1       -0.5009
     30 C          -5.9034    1.5987   -0.7531 C.ar    1  UNL1        0.1628
     31 O          -6.4111    2.8648   -0.4541 O.3     1  UNL1       -0.5032
     32 C          -4.7302    1.1974   -0.1036 C.ar    1  UNL1       -0.0000
     33 C          -0.5714    3.2326    1.2927 C.3     1  UNL1        0.1454
     34 O          -1.3742    4.3812    1.4019 O.3     1  UNL1       -0.3829
     35 C           0.9169    3.6012    1.5116 C.3     1  UNL1        0.1152
     36 O           1.5974    2.4918    2.0421 O.3     1  UNL1       -0.3864
     37 C           1.5836    4.0439    0.1923 C.3     1  UNL1        0.1120
     38 O           1.0570    5.2916   -0.1827 O.3     1  UNL1       -0.3865
     39 C           4.3177   -0.3927    0.5037 C.3     1  UNL1        0.1341
     40 O           5.4705    0.3556    0.8018 O.3     1  UNL1       -0.3841
     41 C           4.6806   -1.8555    0.1707 C.3     1  UNL1        0.1141
     42 O           5.1961   -2.4957    1.3091 O.3     1  UNL1       -0.3864
     43 C           3.4281   -2.6101   -0.3120 C.3     1  UNL1        0.1119
     44 O           3.7682   -3.9020   -0.7525 O.3     1  UNL1       -0.3865
     45 H           0.6402   -3.4774   -0.4745 H       1  UNL1        0.2095
     46 H           1.7089   -3.5035   -2.3602 H       1  UNL1        0.0584
     47 H           1.0283   -1.9014   -2.7690 H       1  UNL1        0.0584
     48 H           3.4056   -1.7030   -2.3043 H       1  UNL1        0.0647
     49 H           4.1997    0.3117   -1.5525 H       1  UNL1        0.0937
     50 H           2.4224    1.6808   -2.2642 H       1  UNL1        0.0587
     51 H           3.3977    3.0527   -1.6534 H       1  UNL1        0.0587
     52 H           0.9781    3.5265   -1.8623 H       1  UNL1        0.0647
     53 H          -1.1261    3.3954   -0.8101 H       1  UNL1        0.1084
     54 H           0.1720    0.4713    1.3424 H       1  UNL1        0.0667
     55 H           2.2950   -1.5652    3.1962 H       1  UNL1        0.2922
     56 H           1.1719   -3.7285    3.4035 H       1  UNL1        0.0691
     57 H          -1.6155   -6.0218    2.9018 H       1  UNL1        0.2921
     58 H          -2.7583   -4.1777    1.7297 H       1  UNL1        0.0749
     59 H          -4.3797   -1.9133   -1.4397 H       1  UNL1        0.0664
     60 H          -6.2171   -2.3343   -2.9945 H       1  UNL1        0.2923
     61 H          -8.1663    1.9512   -2.2696 H       1  UNL1        0.2924
     62 H          -7.2556    3.2452   -0.8561 H       1  UNL1        0.2923
     63 H          -4.2793    1.8659    0.6194 H       1  UNL1        0.0664
     64 H          -0.8775    2.5075    2.0821 H       1  UNL1        0.0683
     65 H          -1.4548    4.5878    2.3699 H       1  UNL1        0.2102
     66 H           0.9756    4.4390    2.2466 H       1  UNL1        0.0648
     67 H           2.4488    2.8290    2.4258 H       1  UNL1        0.2100
     68 H           2.6745    4.1696    0.3918 H       1  UNL1        0.0647
     69 H           1.6776    5.6731   -0.8576 H       1  UNL1        0.2100
     70 H           3.6686   -0.3866    1.4049 H       1  UNL1        0.0671
     71 H           6.0446    0.3609   -0.0085 H       1  UNL1        0.2101
     72 H           5.4389   -1.8685   -0.6485 H       1  UNL1        0.0648
     73 H           6.1369   -2.1942    1.4070 H       1  UNL1        0.2100
     74 H           2.7326   -2.7129    0.5497 H       1  UNL1        0.0647
     75 H           4.3624   -3.8047   -1.5422 H       1  UNL1        0.2100
@<TRIPOS>UNITY_ATOM_ATTR
22 1
charge 1
@<TRIPOS>BOND
     1     1     2    1
     2     2     3    1
     3     3     4    1
     4     4     5    1
     5     5     6    1
     6     6     7    1
     7     7     8    1
     8     8     9    1
     9     9    10    1
    10    10    11    1
    11    11    12    1
    12    12    13   ar
    13    13    14   ar
    14    14    15   ar
    15    15    16    1
    16    15    17   ar
    17    17    18   ar
    18    18    19    1
    19    18    20   ar
    20    20    21   ar
    21    21    22   ar
    22    22    23   ar
    23    23    24    1
    24    24    25   ar
    25    25    26   ar
    26    26    27    1
    27    26    28   ar
    28    28    29    1
    29    28    30   ar
    30    30    31    1
    31    30    32   ar
    32    10    33    1
    33    33    34    1
    34    33    35    1
    35    35    36    1
    36    35    37    1
    37    37    38    1
    38     5    39    1
    39    39    40    1
    40    39    41    1
    41    41    42    1
    42    41    43    1
    43    43    44    1
    44    43     3    1
    45    37     8    1
    46    23    12   ar
    47    32    24   ar
    48    21    14   ar
    49     1    45    1
    50     2    46    1
    51     2    47    1
    52     3    48    1
    53     5    49    1
    54     7    50    1
    55     7    51    1
    56     8    52    1
    57    10    53    1
    58    13    54    1
    59    16    55    1
    60    17    56    1
    61    19    57    1
    62    20    58    1
    63    25    59    1
    64    27    60    1
    65    29    61    1
    66    31    62    1
    67    32    63    1
    68    33    64    1
    69    34    65    1
    70    35    66    1
    71    36    67    1
    72    37    68    1
    73    38    69    1
    74    39    70    1
    75    40    71    1
    76    41    72    1
    77    42    73    1
    78    43    74    1
    79    44    75    1
