@<TRIPOS>MOLECULE
Cyanidin 3-O-(6''-malonyl-3''-glucosyl-glucoside)
 82 86 0 0 0
SMALL
GASTEIGER

@<TRIPOS>ATOM
      1 C          -5.9216   -1.2848    1.1955 C.3     1  UNL1        0.1130
      2 C          -7.0298   -0.6030    2.0066 C.3     1  UNL1        0.0730
      3 O          -6.7649   -0.7038    3.3794 O.3     1  UNL1       -0.3924
      4 O          -4.6715   -0.7312    1.5588 O.3     1  UNL1       -0.3405
      5 C          -3.6787   -1.0379    0.5905 C.3     1  UNL1        0.1884
      6 O          -2.4222   -0.6928    1.1518 O.3     1  UNL1       -0.3400
      7 C          -1.4866   -0.2672    0.1708 C.3     1  UNL1        0.1217
      8 C          -1.4294    1.2783    0.1402 C.3     1  UNL1        0.1134
      9 O          -2.6376    1.8102   -0.3439 O.3     1  UNL1       -0.3864
     10 C          -0.2187    1.7622   -0.7057 C.3     1  UNL1        0.1250
     11 C          -0.0902    3.2900   -0.6772 C.3     1  UNL1        0.1212
     12 O          -1.1720    3.8898   -1.3830 O.3     1  UNL1       -0.4616
     13 C          -1.3396    5.2735   -1.4773 C.2     1  UNL1        0.3180
     14 O          -0.5167    6.0611   -0.9354 O.2     1  UNL1       -0.2502
     15 C          -2.5319    5.8181   -2.1929 C.3     1  UNL1        0.1418
     16 C          -3.7484    5.6605   -1.3404 C.2     1  UNL1        0.3155
     17 O          -4.4562    4.4626   -1.3586 O.3     1  UNL1       -0.4802
     18 O          -4.1094    6.5945   -0.5753 O.2     1  UNL1       -0.2504
     19 O           0.9825    1.2144   -0.1915 O.3     1  UNL1       -0.3302
     20 C           0.9895   -0.1937   -0.3435 C.3     1  UNL1        0.2313
     21 O           2.2593   -0.6984    0.0643 O.3     1  UNL1       -0.4515
     22 C           3.4880   -0.4001   -0.5494 C.ar    1  UNL1        0.2288
     23 C           3.5724    0.3857   -1.7113 C.ar    1  UNL1        0.0093
     24 C           4.8173    0.6210   -2.3170 C.ar    1  UNL1        0.1241
     25 C           4.9788    1.4046   -3.4900 C.ar    1  UNL1        0.1366
     26 O           3.9158    2.0369   -4.1419 O.3     1  UNL1       -0.5057
     27 C           6.2576    1.5687   -4.0367 C.ar    1  UNL1        0.0225
     28 C           7.3756    0.9761   -3.4394 C.ar    1  UNL1        0.1293
     29 O           8.6455    1.1434   -3.9875 O.3     1  UNL1       -0.5063
     30 C           7.2211    0.2109   -2.2834 C.ar    1  UNL1        0.0847
     31 C           5.9555    0.0304   -1.7194 C.ar    1  UNL1        0.3708
     32 O           5.8384   -0.7003   -0.6168 O.2     1  UNL1       -0.1997
     33 C           4.6775   -0.9246   -0.0083 C.ar    1  UNL1        0.4046
     34 C           4.6820   -1.7462    1.2238 C.ar    1  UNL1        0.0865
     35 C           5.5022   -2.8831    1.2929 C.ar    1  UNL1       -0.0418
     36 C           5.5310   -3.6657    2.4499 C.ar    1  UNL1       -0.0157
     37 C           4.7535   -3.3178    3.5587 C.ar    1  UNL1        0.1583
     38 O           4.7996   -4.1204    4.6980 O.3     1  UNL1       -0.5033
     39 C           3.9457   -2.1693    3.5107 C.ar    1  UNL1        0.1591
     40 O           3.1772   -1.8093    4.6167 O.3     1  UNL1       -0.5033
     41 C           3.9186   -1.3845    2.3487 C.ar    1  UNL1       -0.0003
     42 C          -0.0983   -0.8201    0.5488 C.3     1  UNL1        0.1458
     43 O          -0.0734   -2.2232    0.4611 O.3     1  UNL1       -0.3829
     44 C          -3.6719   -2.5506    0.1909 C.3     1  UNL1        0.1341
     45 O          -4.2049   -2.7067   -1.1001 O.3     1  UNL1       -0.3841
     46 C          -4.4941   -3.4086    1.1745 C.3     1  UNL1        0.1141
     47 O          -3.7966   -3.5796    2.3857 O.3     1  UNL1       -0.3864
     48 C          -5.9096   -2.8175    1.4209 C.3     1  UNL1        0.1119
     49 O          -6.8392   -3.4105    0.5494 O.3     1  UNL1       -0.3865
     50 H          -6.1426   -1.0699    0.1216 H       1  UNL1        0.0647
     51 H          -8.0104   -1.0752    1.7723 H       1  UNL1        0.0584
     52 H          -7.0794    0.4707    1.7173 H       1  UNL1        0.0584
     53 H          -7.5191   -0.2511    3.8388 H       1  UNL1        0.2095
     54 H          -3.9020   -0.4156   -0.3093 H       1  UNL1        0.0938
     55 H          -1.7259   -0.6452   -0.8535 H       1  UNL1        0.0652
     56 H          -1.2926    1.6395    1.1839 H       1  UNL1        0.0647
     57 H          -2.7307    1.5283   -1.2916 H       1  UNL1        0.2100
     58 H          -0.3533    1.4616   -1.7719 H       1  UNL1        0.0658
     59 H          -0.0762    3.6511    0.3748 H       1  UNL1        0.0724
     60 H           0.8654    3.5847   -1.1640 H       1  UNL1        0.0724
     61 H          -2.3765    6.8910   -2.4401 H       1  UNL1        0.0493
     62 H          -2.6730    5.2633   -3.1446 H       1  UNL1        0.0493
     63 H          -5.2713    4.3315   -0.7716 H       1  UNL1        0.2951
     64 H           0.8184   -0.4874   -1.4062 H       1  UNL1        0.1084
     65 H           2.6685    0.7864   -2.1346 H       1  UNL1        0.0667
     66 H           2.9563    2.0130   -3.8289 H       1  UNL1        0.2922
     67 H           6.3814    2.1647   -4.9325 H       1  UNL1        0.0691
     68 H           8.7926    1.6932   -4.8259 H       1  UNL1        0.2921
     69 H           8.0880   -0.2453   -1.8211 H       1  UNL1        0.0749
     70 H           6.1106   -3.1731    0.4448 H       1  UNL1        0.0628
     71 H           6.1597   -4.5464    2.4851 H       1  UNL1        0.0655
     72 H           4.2560   -3.9103    5.5265 H       1  UNL1        0.2923
     73 H           2.5854   -0.9868    4.6070 H       1  UNL1        0.2923
     74 H           3.3193   -0.4829    2.3366 H       1  UNL1        0.0664
     75 H           0.1191   -0.5414    1.6043 H       1  UNL1        0.0683
     76 H          -0.2220   -2.4688   -0.4896 H       1  UNL1        0.2102
     77 H          -2.6305   -2.9464    0.1951 H       1  UNL1        0.0671
     78 H          -3.5086   -2.3978   -1.7372 H       1  UNL1        0.2101
     79 H          -4.6017   -4.4233    0.7310 H       1  UNL1        0.0648
     80 H          -3.7338   -2.6979    2.8354 H       1  UNL1        0.2100
     81 H          -6.2031   -3.0424    2.4740 H       1  UNL1        0.0647
     82 H          -7.0390   -4.3135    0.9111 H       1  UNL1        0.2100
@<TRIPOS>UNITY_ATOM_ATTR
32 1
charge 1
@<TRIPOS>BOND
     1     1     2    1
     2     2     3    1
     3     1     4    1
     4     4     5    1
     5     5     6    1
     6     6     7    1
     7     7     8    1
     8     8     9    1
     9     8    10    1
    10    10    11    1
    11    11    12    1
    12    12    13    1
    13    13    14    2
    14    13    15    1
    15    15    16    1
    16    16    17    1
    17    16    18    2
    18    10    19    1
    19    19    20    1
    20    20    21    1
    21    21    22    1
    22    22    23   ar
    23    23    24   ar
    24    24    25   ar
    25    25    26    1
    26    25    27   ar
    27    27    28   ar
    28    28    29    1
    29    28    30   ar
    30    30    31   ar
    31    31    32   ar
    32    32    33   ar
    33    33    34    1
    34    34    35   ar
    35    35    36   ar
    36    36    37   ar
    37    37    38    1
    38    37    39   ar
    39    39    40    1
    40    39    41   ar
    41    20    42    1
    42    42    43    1
    43     5    44    1
    44    44    45    1
    45    44    46    1
    46    46    47    1
    47    46    48    1
    48    48    49    1
    49    48     1    1
    50    42     7    1
    51    33    22   ar
    52    41    34   ar
    53    31    24   ar
    54     1    50    1
    55     2    51    1
    56     2    52    1
    57     3    53    1
    58     5    54    1
    59     7    55    1
    60     8    56    1
    61     9    57    1
    62    10    58    1
    63    11    59    1
    64    11    60    1
    65    15    61    1
    66    15    62    1
    67    17    63    1
    68    20    64    1
    69    23    65    1
    70    26    66    1
    71    27    67    1
    72    29    68    1
    73    30    69    1
    74    35    70    1
    75    36    71    1
    76    38    72    1
    77    40    73    1
    78    41    74    1
    79    42    75    1
    80    43    76    1
    81    44    77    1
    82    45    78    1
    83    46    79    1
    84    47    80    1
    85    48    81    1
    86    49    82    1
