@<TRIPOS>MOLECULE
Delphinidin 3-O-feruloyl-glucoside
 75 79 0 0 0
SMALL
GASTEIGER

@<TRIPOS>ATOM
      1 C           0.5907   -0.1635   -0.1371 C.3     1  UNL1        0.1250
      2 C           1.1201    0.6173   -1.3440 C.3     1  UNL1        0.1215
      3 O           2.5421    0.6801   -1.3028 O.3     1  UNL1       -0.4589
      4 C           3.3007    1.3279   -2.2833 C.2     1  UNL1        0.3320
      5 O           2.7342    1.8958   -3.2562 O.2     1  UNL1       -0.2456
      6 C           4.7688    1.3525   -2.1938 C.2     1  UNL1        0.0231
      7 C           5.4243    0.7865   -1.1712 C.2     1  UNL1       -0.0477
      8 C           6.9019    0.7941   -1.0324 C.ar    1  UNL1       -0.0211
      9 C           7.4588    0.5780    0.2396 C.ar    1  UNL1       -0.0092
     10 C           8.8557    0.5652    0.4240 C.ar    1  UNL1        0.1618
     11 O           9.4428    0.3619    1.6829 O.3     1  UNL1       -0.4914
     12 C           8.7145    0.1505    2.8882 C.3     1  UNL1        0.0790
     13 C           9.6958    0.7603   -0.6800 C.ar    1  UNL1        0.1585
     14 O          11.0786    0.7498   -0.5042 O.3     1  UNL1       -0.5033
     15 C           9.1479    0.9602   -1.9525 C.ar    1  UNL1       -0.0160
     16 C           7.7633    0.9728   -2.1314 C.ar    1  UNL1       -0.0509
     17 O          -0.8228   -0.1079   -0.1559 O.3     1  UNL1       -0.3302
     18 C          -1.3602   -0.5227    1.0932 C.3     1  UNL1        0.2313
     19 O          -2.7728   -0.6652    0.9531 O.3     1  UNL1       -0.4515
     20 C          -3.6667    0.3576    0.5928 C.ar    1  UNL1        0.2288
     21 C          -5.0193    0.0425    0.3627 C.ar    1  UNL1        0.4047
     22 O          -5.8885    1.0103    0.0872 O.2     1  UNL1       -0.1997
     23 C          -5.5475    2.2896   -0.0160 C.ar    1  UNL1        0.3708
     24 C          -6.5343    3.2337   -0.3116 C.ar    1  UNL1        0.0847
     25 C          -6.2031    4.5866   -0.4302 C.ar    1  UNL1        0.1293
     26 O          -7.1819    5.5336   -0.7234 O.3     1  UNL1       -0.5063
     27 C          -4.8796    4.9959   -0.2552 C.ar    1  UNL1        0.0225
     28 C          -3.8720    4.0692    0.0397 C.ar    1  UNL1        0.1366
     29 O          -2.5719    4.5607    0.1907 O.3     1  UNL1       -0.5057
     30 C          -4.2043    2.6947    0.1676 C.ar    1  UNL1        0.1241
     31 C          -3.2646    1.6991    0.4815 C.ar    1  UNL1        0.0093
     32 C          -5.5198   -1.3498    0.4308 C.ar    1  UNL1        0.0899
     33 C          -4.8105   -2.4100   -0.1573 C.ar    1  UNL1       -0.0000
     34 C          -5.2955   -3.7213   -0.0976 C.ar    1  UNL1        0.1628
     35 O          -4.5315   -4.7245   -0.6976 O.3     1  UNL1       -0.5032
     36 C          -6.5255   -3.9818    0.5523 C.ar    1  UNL1        0.2006
     37 O          -7.0622   -5.2676    0.6552 O.3     1  UNL1       -0.5009
     38 C          -7.2466   -2.9200    1.1168 C.ar    1  UNL1        0.1628
     39 O          -8.4635   -3.1741    1.7480 O.3     1  UNL1       -0.5032
     40 C          -6.7492   -1.6126    1.0490 C.ar    1  UNL1       -0.0000
     41 C          -0.7741   -1.8808    1.5754 C.3     1  UNL1        0.1454
     42 O           0.0920   -1.6563    2.6598 O.3     1  UNL1       -0.3829
     43 C          -0.0119   -2.5819    0.4307 C.3     1  UNL1        0.1152
     44 O          -0.9125   -2.9470   -0.5858 O.3     1  UNL1       -0.3864
     45 C           1.0679   -1.6449   -0.1560 C.3     1  UNL1        0.1130
     46 O           2.2458   -1.7732    0.6008 O.3     1  UNL1       -0.3864
     47 H           0.9803    0.3494    0.7756 H       1  UNL1        0.0658
     48 H           0.7082    1.6501   -1.3172 H       1  UNL1        0.0725
     49 H           0.7894    0.1305   -2.2879 H       1  UNL1        0.0725
     50 H           5.3060    1.8705   -2.9763 H       1  UNL1        0.0689
     51 H           4.8531    0.3296   -0.3713 H       1  UNL1        0.0626
     52 H           6.7984    0.4287    1.0838 H       1  UNL1        0.0661
     53 H           8.0713    1.0294    3.1049 H       1  UNL1        0.0660
     54 H           9.4300    0.0193    3.7255 H       1  UNL1        0.0660
     55 H           8.0943   -0.7668    2.8038 H       1  UNL1        0.0660
     56 H          11.7134    0.8867   -1.2822 H       1  UNL1        0.2923
     57 H           9.7969    1.0992   -2.8079 H       1  UNL1        0.0655
     58 H           7.3795    1.0984   -3.1341 H       1  UNL1        0.0625
     59 H          -1.1670    0.2583    1.8642 H       1  UNL1        0.1084
     60 H          -7.5599    2.9139   -0.4492 H       1  UNL1        0.0749
     61 H          -8.1512    5.2699   -0.8568 H       1  UNL1        0.2921
     62 H          -4.6299    6.0454   -0.3516 H       1  UNL1        0.0691
     63 H          -1.7616    3.9885    0.3781 H       1  UNL1        0.2922
     64 H          -2.2337    1.9492    0.6593 H       1  UNL1        0.0667
     65 H          -3.8851   -2.2211   -0.6872 H       1  UNL1        0.0664
     66 H          -4.7944   -5.6991   -0.7198 H       1  UNL1        0.2923
     67 H          -6.6169   -6.0975    0.2912 H       1  UNL1        0.2924
     68 H          -9.0101   -2.4306    2.1666 H       1  UNL1        0.2923
     69 H          -7.3164   -0.8032    1.4932 H       1  UNL1        0.0664
     70 H          -1.6064   -2.5431    1.9140 H       1  UNL1        0.0683
     71 H           0.2396   -2.5349    3.0983 H       1  UNL1        0.2102
     72 H           0.4822   -3.5031    0.8210 H       1  UNL1        0.0648
     73 H          -1.4293   -3.7248   -0.2481 H       1  UNL1        0.2100
     74 H           1.2631   -1.9794   -1.2038 H       1  UNL1        0.0647
     75 H           3.0031   -1.5347    0.0056 H       1  UNL1        0.2100
@<TRIPOS>UNITY_ATOM_ATTR
22 1
charge 1
@<TRIPOS>BOND
     1     1     2    1
     2     2     3    1
     3     3     4    1
     4     4     5    2
     5     4     6    1
     6     6     7    2
     7     7     8    1
     8     8     9   ar
     9     9    10   ar
    10    10    11    1
    11    11    12    1
    12    10    13   ar
    13    13    14    1
    14    13    15   ar
    15    15    16   ar
    16     1    17    1
    17    17    18    1
    18    18    19    1
    19    19    20    1
    20    20    21   ar
    21    21    22   ar
    22    22    23   ar
    23    23    24   ar
    24    24    25   ar
    25    25    26    1
    26    25    27   ar
    27    27    28   ar
    28    28    29    1
    29    28    30   ar
    30    30    31   ar
    31    21    32    1
    32    32    33   ar
    33    33    34   ar
    34    34    35    1
    35    34    36   ar
    36    36    37    1
    37    36    38   ar
    38    38    39    1
    39    38    40   ar
    40    18    41    1
    41    41    42    1
    42    41    43    1
    43    43    44    1
    44    43    45    1
    45    45    46    1
    46    45     1    1
    47    16     8   ar
    48    31    20   ar
    49    40    32   ar
    50    30    23   ar
    51     1    47    1
    52     2    48    1
    53     2    49    1
    54     6    50    1
    55     7    51    1
    56     9    52    1
    57    12    53    1
    58    12    54    1
    59    12    55    1
    60    14    56    1
    61    15    57    1
    62    16    58    1
    63    18    59    1
    64    24    60    1
    65    26    61    1
    66    27    62    1
    67    29    63    1
    68    31    64    1
    69    33    65    1
    70    35    66    1
    71    37    67    1
    72    39    68    1
    73    40    69    1
    74    41    70    1
    75    42    71    1
    76    43    72    1
    77    44    73    1
    78    45    74    1
    79    46    75    1
