@<TRIPOS>MOLECULE
Petunidin 3,5-O-diglucoside
 78 82 0 0 0
SMALL
GASTEIGER

@<TRIPOS>ATOM
      1 C          -5.4159    4.6554    3.6724 C.3     1  UNL1        0.0790
      2 O          -5.8256    4.4892    2.3187 O.3     1  UNL1       -0.4913
      3 C          -5.0589    3.8596    1.3247 C.ar    1  UNL1        0.1658
      4 C          -5.5841    3.7635    0.0225 C.ar    1  UNL1        0.2008
      5 O          -6.8461    4.2805   -0.2750 O.3     1  UNL1       -0.5009
      6 C          -4.8350    3.1468   -0.9939 C.ar    1  UNL1        0.1628
      7 O          -5.3278    3.0520   -2.2953 O.3     1  UNL1       -0.5032
      8 C          -3.5725    2.6205   -0.7105 C.ar    1  UNL1       -0.0000
      9 C          -3.0447    2.6885    0.5882 C.ar    1  UNL1        0.0899
     10 C          -3.7842    3.3252    1.5957 C.ar    1  UNL1        0.0002
     11 C          -1.6999    2.1532    0.8987 C.ar    1  UNL1        0.4047
     12 O          -0.8918    2.8891    1.6601 O.2     1  UNL1       -0.1997
     13 C           0.3415    2.5167    1.9844 C.ar    1  UNL1        0.3708
     14 C           0.8598    1.2904    1.5208 C.ar    1  UNL1        0.1245
     15 C           0.0259    0.4706    0.7538 C.ar    1  UNL1        0.0093
     16 C          -1.2708    0.8960    0.4237 C.ar    1  UNL1        0.2288
     17 O          -2.1522    0.0985   -0.3303 O.3     1  UNL1       -0.4515
     18 C          -1.8033   -1.0886   -1.0468 C.3     1  UNL1        0.2312
     19 O          -3.0026   -1.7233   -1.4482 O.3     1  UNL1       -0.3313
     20 C          -2.7799   -2.9634   -2.1091 C.3     1  UNL1        0.1140
     21 C          -2.4925   -4.1251   -1.1312 C.3     1  UNL1        0.0731
     22 O          -1.1648   -4.1318   -0.6901 O.3     1  UNL1       -0.3924
     23 C          -1.8094   -2.8662   -3.3252 C.3     1  UNL1        0.1120
     24 O          -2.4961   -2.3200   -4.4244 O.3     1  UNL1       -0.3865
     25 C          -0.5693   -1.9886   -3.0445 C.3     1  UNL1        0.1152
     26 O           0.3956   -2.6996   -2.3127 O.3     1  UNL1       -0.3864
     27 C          -0.9557   -0.7177   -2.2766 C.3     1  UNL1        0.1454
     28 O          -1.6900    0.1497   -3.1035 O.3     1  UNL1       -0.3829
     29 C           2.1762    0.9141    1.8595 C.ar    1  UNL1        0.1437
     30 O           2.7315   -0.2832    1.3982 O.3     1  UNL1       -0.4598
     31 C           3.1613   -0.4585    0.0433 C.3     1  UNL1        0.2308
     32 O           3.1070   -1.8275   -0.3261 O.3     1  UNL1       -0.3313
     33 C           3.9608   -2.6266    0.4808 C.3     1  UNL1        0.1140
     34 C           3.7458   -4.0989    0.1003 C.3     1  UNL1        0.0731
     35 O           2.4159   -4.4754    0.3397 O.3     1  UNL1       -0.3924
     36 C           5.4400   -2.2157    0.2834 C.3     1  UNL1        0.1120
     37 O           6.2703   -2.9548    1.1443 O.3     1  UNL1       -0.3865
     38 C           5.6006   -0.7178    0.6056 C.3     1  UNL1        0.1152
     39 O           6.9126   -0.2725    0.3605 O.3     1  UNL1       -0.3864
     40 C           4.5706    0.1222   -0.1734 C.3     1  UNL1        0.1454
     41 O           4.8594    0.1091   -1.5495 O.3     1  UNL1       -0.3829
     42 C           2.9423    1.7442    2.6859 C.ar    1  UNL1        0.0229
     43 C           2.4224    2.9606    3.1489 C.ar    1  UNL1        0.1293
     44 O           3.1869    3.7944    3.9619 O.3     1  UNL1       -0.5063
     45 C           1.1262    3.3456    2.7924 C.ar    1  UNL1        0.0847
     46 H          -5.2494    3.6646    4.1455 H       1  UNL1        0.0660
     47 H          -4.4877    5.2634    3.7187 H       1  UNL1        0.0660
     48 H          -6.2150    5.1850    4.2302 H       1  UNL1        0.0660
     49 H          -7.4240    4.7346    0.4219 H       1  UNL1        0.2924
     50 H          -6.2355    3.4178   -2.5566 H       1  UNL1        0.2923
     51 H          -2.9970    2.1798   -1.5147 H       1  UNL1        0.0664
     52 H          -3.3659    3.3888    2.5916 H       1  UNL1        0.0664
     53 H           0.3811   -0.4972    0.4356 H       1  UNL1        0.0667
     54 H          -1.2424   -1.7527   -0.3600 H       1  UNL1        0.1084
     55 H          -3.7687   -3.2360   -2.5404 H       1  UNL1        0.0647
     56 H          -3.1778   -4.0420   -0.2580 H       1  UNL1        0.0584
     57 H          -2.7068   -5.0891   -1.6459 H       1  UNL1        0.0584
     58 H          -1.0840   -4.8981   -0.0647 H       1  UNL1        0.2095
     59 H          -1.4578   -3.8899   -3.5974 H       1  UNL1        0.0647
     60 H          -3.0390   -3.0505   -4.8218 H       1  UNL1        0.2100
     61 H          -0.1155   -1.6800   -4.0165 H       1  UNL1        0.0648
     62 H           0.8256   -3.3362   -2.9418 H       1  UNL1        0.2100
     63 H          -0.0236   -0.2076   -1.9415 H       1  UNL1        0.0683
     64 H          -1.0383    0.5931   -3.7071 H       1  UNL1        0.2102
     65 H           2.4670    0.0895   -0.6307 H       1  UNL1        0.1084
     66 H           3.6901   -2.5283    1.5577 H       1  UNL1        0.0647
     67 H           4.0138   -4.2674   -0.9686 H       1  UNL1        0.0584
     68 H           4.4000   -4.7477    0.7199 H       1  UNL1        0.0584
     69 H           1.8880   -4.1831   -0.4483 H       1  UNL1        0.2095
     70 H           5.7241   -2.3861   -0.7838 H       1  UNL1        0.0647
     71 H           6.6272   -3.7204    0.6229 H       1  UNL1        0.2100
     72 H           5.4034   -0.5749    1.6918 H       1  UNL1        0.0648
     73 H           7.1538   -0.5207   -0.5697 H       1  UNL1        0.2100
     74 H           4.5856    1.1699    0.2105 H       1  UNL1        0.0683
     75 H           5.4846    0.8604   -1.7233 H       1  UNL1        0.2102
     76 H           3.9483    1.4480    2.9558 H       1  UNL1        0.0691
     77 H           4.1297    3.5458    4.2378 H       1  UNL1        0.2921
     78 H           0.7267    4.2870    3.1491 H       1  UNL1        0.0749
@<TRIPOS>UNITY_ATOM_ATTR
12 1
charge 1
@<TRIPOS>BOND
     1     1     2    1
     2     2     3    1
     3     3     4   ar
     4     4     5    1
     5     4     6   ar
     6     6     7    1
     7     6     8   ar
     8     8     9   ar
     9     9    10   ar
    10     9    11    1
    11    11    12   ar
    12    12    13   ar
    13    13    14   ar
    14    14    15   ar
    15    15    16   ar
    16    16    17    1
    17    17    18    1
    18    18    19    1
    19    19    20    1
    20    20    21    1
    21    21    22    1
    22    20    23    1
    23    23    24    1
    24    23    25    1
    25    25    26    1
    26    25    27    1
    27    27    28    1
    28    14    29   ar
    29    29    30    1
    30    30    31    1
    31    31    32    1
    32    32    33    1
    33    33    34    1
    34    34    35    1
    35    33    36    1
    36    36    37    1
    37    36    38    1
    38    38    39    1
    39    38    40    1
    40    40    41    1
    41    29    42   ar
    42    42    43   ar
    43    43    44    1
    44    43    45   ar
    45    10     3   ar
    46    16    11   ar
    47    27    18    1
    48    40    31    1
    49    45    13   ar
    50     1    46    1
    51     1    47    1
    52     1    48    1
    53     5    49    1
    54     7    50    1
    55     8    51    1
    56    10    52    1
    57    15    53    1
    58    18    54    1
    59    20    55    1
    60    21    56    1
    61    21    57    1
    62    22    58    1
    63    23    59    1
    64    24    60    1
    65    25    61    1
    66    26    62    1
    67    27    63    1
    68    28    64    1
    69    31    65    1
    70    33    66    1
    71    34    67    1
    72    34    68    1
    73    35    69    1
    74    36    70    1
    75    37    71    1
    76    38    72    1
    77    39    73    1
    78    40    74    1
    79    41    75    1
    80    42    76    1
    81    44    77    1
    82    45    78    1
