@<TRIPOS>MOLECULE
Pelargonidin 3-O-glucoside
 52 55 0 0 0
SMALL
GASTEIGER

@<TRIPOS>ATOM
      1 O           4.9844   -2.6100    0.7273 O.3     1  UNL1       -0.3924
      2 C           3.6147   -2.3616    0.5594 C.3     1  UNL1        0.0731
      3 C           3.3700   -0.9435    0.0221 C.3     1  UNL1        0.1140
      4 O           1.9728   -0.7318   -0.0493 O.3     1  UNL1       -0.3313
      5 C           1.6801    0.6481   -0.2259 C.3     1  UNL1        0.2312
      6 O           0.2876    0.7831   -0.5062 O.3     1  UNL1       -0.4515
      7 C          -0.7576    0.3956    0.3489 C.ar    1  UNL1        0.2288
      8 C          -0.5246   -0.0470    1.6615 C.ar    1  UNL1        0.0093
      9 C          -1.6045   -0.3714    2.4905 C.ar    1  UNL1        0.1241
     10 C          -1.4226   -0.8138    3.8151 C.ar    1  UNL1        0.1366
     11 O          -0.1394   -0.9525    4.3453 O.3     1  UNL1       -0.5057
     12 C          -2.5423   -1.1162    4.6041 C.ar    1  UNL1        0.0225
     13 C          -3.8342   -0.9806    4.0856 C.ar    1  UNL1        0.1293
     14 O          -4.9313   -1.2859    4.8880 O.3     1  UNL1       -0.5063
     15 C          -4.0152   -0.5408    2.7680 C.ar    1  UNL1        0.0847
     16 C          -2.9084   -0.2372    1.9693 C.ar    1  UNL1        0.3708
     17 O          -3.0928    0.1743    0.7199 O.2     1  UNL1       -0.1997
     18 C          -2.0911    0.4774   -0.1033 C.ar    1  UNL1        0.4045
     19 C          -2.4241    0.9082   -1.4804 C.ar    1  UNL1        0.0830
     20 C          -1.7039    0.4313   -2.5917 C.ar    1  UNL1       -0.0420
     21 C          -2.0457    0.8407   -3.8839 C.ar    1  UNL1       -0.0193
     22 C          -3.1196    1.7177   -4.0837 C.ar    1  UNL1        0.1169
     23 O          -3.4683    2.1334   -5.3667 O.3     1  UNL1       -0.5068
     24 C          -3.8527    2.1774   -2.9855 C.ar    1  UNL1       -0.0193
     25 C          -3.5129    1.7702   -1.6918 C.ar    1  UNL1       -0.0420
     26 C           2.4821    1.2841   -1.3972 C.3     1  UNL1        0.1454
     27 O           3.4630    2.1461   -0.8767 O.3     1  UNL1       -0.3829
     28 C           3.1478    0.1900   -2.2589 C.3     1  UNL1        0.1152
     29 O           2.1591   -0.5721   -2.9064 O.3     1  UNL1       -0.3864
     30 C           4.0148   -0.7394   -1.3803 C.3     1  UNL1        0.1120
     31 O           5.2929   -0.1718   -1.2369 O.3     1  UNL1       -0.3865
     32 H           5.2663   -2.1118    1.5385 H       1  UNL1        0.2095
     33 H           3.1976   -3.1097   -0.1484 H       1  UNL1        0.0584
     34 H           3.0832   -2.4913    1.5300 H       1  UNL1        0.0584
     35 H           3.8242   -0.2339    0.7554 H       1  UNL1        0.0647
     36 H           1.8974    1.2025    0.7160 H       1  UNL1        0.1084
     37 H           0.4846   -0.1245    2.0418 H       1  UNL1        0.0667
     38 H           0.0112   -1.2696    5.2959 H       1  UNL1        0.2922
     39 H          -2.4094   -1.4569    5.6234 H       1  UNL1        0.0691
     40 H          -5.8803   -1.1986    4.5434 H       1  UNL1        0.2921
     41 H          -5.0146   -0.4360    2.3641 H       1  UNL1        0.0749
     42 H          -0.8931   -0.2747   -2.4659 H       1  UNL1        0.0628
     43 H          -1.4807    0.4690   -4.7292 H       1  UNL1        0.0654
     44 H          -2.9576    1.8170   -6.1827 H       1  UNL1        0.2921
     45 H          -4.6873    2.8506   -3.1348 H       1  UNL1        0.0654
     46 H          -4.0918    2.1386   -0.8536 H       1  UNL1        0.0628
     47 H           1.7892    1.8779   -2.0401 H       1  UNL1        0.0683
     48 H           3.7721    2.7185   -1.6270 H       1  UNL1        0.2102
     49 H           3.7972    0.6667   -3.0310 H       1  UNL1        0.0648
     50 H           1.7904   -0.0074   -3.6352 H       1  UNL1        0.2100
     51 H           4.1030   -1.7151   -1.9164 H       1  UNL1        0.0647
     52 H           5.9204   -0.9134   -1.0344 H       1  UNL1        0.2100
@<TRIPOS>UNITY_ATOM_ATTR
17 1
charge 1
@<TRIPOS>BOND
     1     1     2    1
     2     2     3    1
     3     3     4    1
     4     4     5    1
     5     5     6    1
     6     6     7    1
     7     7     8   ar
     8     8     9   ar
     9     9    10   ar
    10    10    11    1
    11    10    12   ar
    12    12    13   ar
    13    13    14    1
    14    13    15   ar
    15    15    16   ar
    16    16    17   ar
    17    17    18   ar
    18    18    19    1
    19    19    20   ar
    20    20    21   ar
    21    21    22   ar
    22    22    23    1
    23    22    24   ar
    24    24    25   ar
    25     5    26    1
    26    26    27    1
    27    26    28    1
    28    28    29    1
    29    28    30    1
    30    30    31    1
    31    30     3    1
    32    18     7   ar
    33    25    19   ar
    34    16     9   ar
    35     1    32    1
    36     2    33    1
    37     2    34    1
    38     3    35    1
    39     5    36    1
    40     8    37    1
    41    11    38    1
    42    12    39    1
    43    14    40    1
    44    15    41    1
    45    20    42    1
    46    21    43    1
    47    23    44    1
    48    24    45    1
    49    25    46    1
    50    26    47    1
    51    27    48    1
    52    28    49    1
    53    29    50    1
    54    30    51    1
    55    31    52    1
