@<TRIPOS>MOLECULE
Petunidin 3-O-rhamnoside
 55 58 0 0 0
SMALL
GASTEIGER

@<TRIPOS>ATOM
      1 C           1.2788   -3.9159   -2.0701 C.3     1  UNL1        0.0790
      2 O           2.5289   -3.7257   -1.4162 O.3     1  UNL1       -0.4913
      3 C           2.9274   -2.5351   -0.7878 C.ar    1  UNL1        0.1658
      4 C           4.2052   -2.4833   -0.2126 C.ar    1  UNL1        0.2008
      5 O           5.0199   -3.6149   -0.2665 O.3     1  UNL1       -0.5009
      6 C           4.6557   -1.3030    0.4015 C.ar    1  UNL1        0.1628
      7 O           5.9299   -1.2520    0.9650 O.3     1  UNL1       -0.5032
      8 C           3.8242   -0.1774    0.4439 C.ar    1  UNL1       -0.0000
      9 C           2.5346   -0.2225   -0.1033 C.ar    1  UNL1        0.0899
     10 C           2.0933   -1.4012   -0.7284 C.ar    1  UNL1        0.0002
     11 C           1.6900    0.9915   -0.0701 C.ar    1  UNL1        0.4047
     12 O           2.2553    2.1575   -0.3797 O.2     1  UNL1       -0.1998
     13 C           1.5892    3.3066   -0.3912 C.ar    1  UNL1        0.3673
     14 C           0.2195    3.3355   -0.0631 C.ar    1  UNL1        0.0829
     15 C          -0.4780    4.5522   -0.0808 C.ar    1  UNL1       -0.0421
     16 C           0.1879    5.7331   -0.4241 C.ar    1  UNL1       -0.0190
     17 C           1.5491    5.7078   -0.7495 C.ar    1  UNL1        0.1258
     18 O           2.1962    6.8939   -1.0882 O.3     1  UNL1       -0.5065
     19 C           2.2490    4.4924   -0.7322 C.ar    1  UNL1        0.0844
     20 C          -0.4092    2.1379    0.2825 C.ar    1  UNL1        0.0057
     21 C           0.3274    0.9408    0.2935 C.ar    1  UNL1        0.2287
     22 O          -0.2424   -0.2835    0.6828 O.3     1  UNL1       -0.4515
     23 C          -1.6039   -0.4666    1.0687 C.3     1  UNL1        0.2312
     24 O          -2.4450   -0.2047   -0.0438 O.3     1  UNL1       -0.3339
     25 C          -3.8054   -0.2193    0.3541 C.3     1  UNL1        0.0883
     26 C          -4.6664    0.3112   -0.7933 C.3     1  UNL1       -0.0360
     27 C          -4.2391   -1.6479    0.7768 C.3     1  UNL1        0.1096
     28 O          -4.3273   -2.5314   -0.3171 O.3     1  UNL1       -0.3866
     29 C          -3.2891   -2.1839    1.8754 C.3     1  UNL1        0.1151
     30 O          -3.5338   -3.5378    2.1695 O.3     1  UNL1       -0.3864
     31 C          -1.7957   -1.9179    1.5677 C.3     1  UNL1        0.1454
     32 O          -1.2669   -2.8707    0.6737 O.3     1  UNL1       -0.3829
     33 H           1.1638   -3.1840   -2.8973 H       1  UNL1        0.0660
     34 H           0.4487   -3.8069   -1.3430 H       1  UNL1        0.0660
     35 H           1.2443   -4.9399   -2.4948 H       1  UNL1        0.0660
     36 H           5.9511   -3.6290    0.1318 H       1  UNL1        0.2924
     37 H           6.2796   -0.4130    1.4130 H       1  UNL1        0.2923
     38 H           4.1805    0.7306    0.9157 H       1  UNL1        0.0664
     39 H           1.1153   -1.4215   -1.1898 H       1  UNL1        0.0664
     40 H          -1.5313    4.5896    0.1701 H       1  UNL1        0.0628
     41 H          -0.3542    6.6702   -0.4366 H       1  UNL1        0.0654
     42 H           3.1805    6.9101   -1.3288 H       1  UNL1        0.2921
     43 H           3.3020    4.4690   -0.9841 H       1  UNL1        0.0749
     44 H          -1.4572    2.1480    0.5514 H       1  UNL1        0.0666
     45 H          -1.8200    0.2315    1.9117 H       1  UNL1        0.1084
     46 H          -3.9684    0.4753    1.2121 H       1  UNL1        0.0621
     47 H          -4.5158   -0.2922   -1.7133 H       1  UNL1        0.0255
     48 H          -4.3847    1.3626   -1.0150 H       1  UNL1        0.0255
     49 H          -5.7409    0.2866   -0.5124 H       1  UNL1        0.0255
     50 H          -5.2565   -1.5777    1.2210 H       1  UNL1        0.0646
     51 H          -3.5167   -2.4237   -0.8746 H       1  UNL1        0.2100
     52 H          -3.5246   -1.6099    2.7997 H       1  UNL1        0.0648
     53 H          -3.3296   -4.0721    1.3593 H       1  UNL1        0.2100
     54 H          -1.2325   -2.0219    2.5210 H       1  UNL1        0.0683
     55 H          -1.3929   -2.5477   -0.2542 H       1  UNL1        0.2102
@<TRIPOS>UNITY_ATOM_ATTR
12 1
charge 1
@<TRIPOS>BOND
     1     1     2    1
     2     2     3    1
     3     3     4   ar
     4     4     5    1
     5     4     6   ar
     6     6     7    1
     7     6     8   ar
     8     8     9   ar
     9     9    10   ar
    10     9    11    1
    11    11    12   ar
    12    12    13   ar
    13    13    14   ar
    14    14    15   ar
    15    15    16   ar
    16    16    17   ar
    17    17    18    1
    18    17    19   ar
    19    14    20   ar
    20    20    21   ar
    21    21    22    1
    22    22    23    1
    23    23    24    1
    24    24    25    1
    25    25    26    1
    26    25    27    1
    27    27    28    1
    28    27    29    1
    29    29    30    1
    30    29    31    1
    31    31    32    1
    32    10     3   ar
    33    21    11   ar
    34    31    23    1
    35    19    13   ar
    36     1    33    1
    37     1    34    1
    38     1    35    1
    39     5    36    1
    40     7    37    1
    41     8    38    1
    42    10    39    1
    43    15    40    1
    44    16    41    1
    45    18    42    1
    46    19    43    1
    47    20    44    1
    48    23    45    1
    49    25    46    1
    50    26    47    1
    51    26    48    1
    52    26    49    1
    53    27    50    1
    54    28    51    1
    55    29    52    1
    56    30    53    1
    57    31    54    1
    58    32    55    1
