@<TRIPOS>MOLECULE
Butein
 32 33 0 0 0
SMALL
GASTEIGER

@<TRIPOS>ATOM
      1 O          -6.5398    0.6603   -0.2334 O.3     1  UNL1       -0.5066
      2 C          -5.2458    0.1767   -0.0535 C.ar    1  UNL1        0.1204
      3 C          -4.2411    1.0012    0.4673 C.ar    1  UNL1        0.0220
      4 C          -2.9398    0.5087    0.6485 C.ar    1  UNL1        0.1311
      5 O          -1.9655    1.3311    1.2145 O.3     1  UNL1       -0.5059
      6 C          -2.6339   -0.8211    0.2825 C.ar    1  UNL1        0.0632
      7 C          -3.6569   -1.6433   -0.2218 C.ar    1  UNL1       -0.0440
      8 C          -4.9508   -1.1453   -0.3924 C.ar    1  UNL1       -0.0193
      9 C          -1.2715   -1.3818    0.4403 C.2     1  UNL1        0.1896
     10 O          -1.1422   -2.5774    0.8230 O.2     1  UNL1       -0.2872
     11 C          -0.0730   -0.5803    0.1094 C.2     1  UNL1       -0.0137
     12 C           1.1693   -1.0147    0.3658 C.2     1  UNL1       -0.0508
     13 C           2.3940   -0.2458    0.0336 C.ar    1  UNL1       -0.0212
     14 C           3.6111   -0.9369   -0.0856 C.ar    1  UNL1       -0.0094
     15 C           4.7977   -0.2531   -0.3880 C.ar    1  UNL1        0.1588
     16 O           5.9969   -0.9528   -0.5139 O.3     1  UNL1       -0.5033
     17 C           4.7748    1.1400   -0.5632 C.ar    1  UNL1        0.1582
     18 O           5.9371    1.8488   -0.8654 O.3     1  UNL1       -0.5033
     19 C           3.5699    1.8354   -0.4295 C.ar    1  UNL1       -0.0160
     20 C           2.3878    1.1535   -0.1288 C.ar    1  UNL1       -0.0509
     21 H          -6.7866    1.6141    0.0038 H       1  UNL1        0.2921
     22 H          -4.4740    2.0222    0.7428 H       1  UNL1        0.0691
     23 H          -2.1679    2.2852    1.4895 H       1  UNL1        0.2922
     24 H          -3.4499   -2.6696   -0.5002 H       1  UNL1        0.0627
     25 H          -5.7253   -1.7879   -0.7914 H       1  UNL1        0.0654
     26 H          -0.2241    0.3653   -0.3918 H       1  UNL1        0.0656
     27 H           1.3025   -1.9957    0.8072 H       1  UNL1        0.0625
     28 H           3.6387   -2.0119    0.0477 H       1  UNL1        0.0661
     29 H           6.0406   -1.9579   -0.3922 H       1  UNL1        0.2923
     30 H           6.8343    1.3908   -0.9713 H       1  UNL1        0.2923
     31 H           3.5509    2.9110   -0.5519 H       1  UNL1        0.0655
     32 H           1.4829    1.7313   -0.0016 H       1  UNL1        0.0625
@<TRIPOS>BOND
     1     1     2    1
     2     2     3   ar
     3     3     4   ar
     4     4     5    1
     5     4     6   ar
     6     6     7   ar
     7     7     8   ar
     8     6     9    1
     9     9    10    2
    10     9    11    1
    11    11    12    2
    12    12    13    1
    13    13    14   ar
    14    14    15   ar
    15    15    16    1
    16    15    17   ar
    17    17    18    1
    18    17    19   ar
    19    19    20   ar
    20     8     2   ar
    21    20    13   ar
    22     1    21    1
    23     3    22    1
    24     5    23    1
    25     7    24    1
    26     8    25    1
    27    11    26    1
    28    12    27    1
    29    14    28    1
    30    16    29    1
    31    18    30    1
    32    19    31    1
    33    20    32    1
