@<TRIPOS>MOLECULE
Xanthohumol
 48 49 0 0 0
SMALL
GASTEIGER

@<TRIPOS>ATOM
      1 C           1.8113   -2.5598   -2.8121 C.3     1  UNL1        0.0788
      2 O           1.4371   -1.2314   -2.4628 O.3     1  UNL1       -0.4942
      3 C           0.1656   -0.8530   -1.9979 C.ar    1  UNL1        0.1379
      4 C          -0.0572    0.4898   -1.6375 C.ar    1  UNL1        0.1050
      5 C           1.0462    1.4771   -1.7227 C.2     1  UNL1        0.1931
      6 O           0.8705    2.5267   -2.3974 O.2     1  UNL1       -0.2870
      7 C           2.3503    1.2824   -1.0531 C.2     1  UNL1       -0.0135
      8 C           2.5367    0.3918   -0.0672 C.2     1  UNL1       -0.0510
      9 C           3.8391    0.1679    0.6057 C.ar    1  UNL1       -0.0247
     10 C           4.8554    1.1445    0.6377 C.ar    1  UNL1       -0.0511
     11 C           6.0630    0.8867    1.2941 C.ar    1  UNL1       -0.0196
     12 C           6.2702   -0.3418    1.9336 C.ar    1  UNL1        0.1169
     13 O           7.4702   -0.6087    2.5889 O.3     1  UNL1       -0.5068
     14 C           5.2620   -1.3090    1.9181 C.ar    1  UNL1       -0.0196
     15 C           4.0529   -1.0550    1.2640 C.ar    1  UNL1       -0.0511
     16 C          -1.3334    0.9060   -1.2082 C.ar    1  UNL1        0.1381
     17 O          -1.5051    2.2431   -0.8309 O.3     1  UNL1       -0.5055
     18 C          -2.4000   -0.0253   -1.1435 C.ar    1  UNL1        0.0400
     19 C          -3.7822    0.3986   -0.6929 C.3     1  UNL1       -0.0023
     20 C          -3.8426    0.5272    0.8100 C.2     1  UNL1       -0.0807
     21 C          -4.9474    0.9292    1.4728 C.2     1  UNL1       -0.0793
     22 C          -4.8958    1.0222    2.9757 C.3     1  UNL1       -0.0440
     23 C          -6.2211    1.2848    0.7434 C.3     1  UNL1       -0.0440
     24 C          -2.1536   -1.3756   -1.4629 C.ar    1  UNL1        0.1273
     25 O          -3.1734   -2.3224   -1.3556 O.3     1  UNL1       -0.5062
     26 C          -0.8848   -1.7779   -1.8909 C.ar    1  UNL1        0.0228
     27 H           1.1883   -2.9230   -3.6563 H       1  UNL1        0.0660
     28 H           2.8746   -2.5646   -3.1278 H       1  UNL1        0.0660
     29 H           1.6987   -3.2308   -1.9344 H       1  UNL1        0.0660
     30 H           3.1663    1.9088   -1.3854 H       1  UNL1        0.0656
     31 H           1.7086   -0.2339    0.2428 H       1  UNL1        0.0625
     32 H           4.7189    2.1151    0.1822 H       1  UNL1        0.0625
     33 H           6.8347    1.6459    1.3112 H       1  UNL1        0.0654
     34 H           8.2199    0.0724    2.6189 H       1  UNL1        0.2921
     35 H           5.4149   -2.2590    2.4143 H       1  UNL1        0.0654
     36 H           3.2855   -1.8199    1.2635 H       1  UNL1        0.0625
     37 H          -2.3634    2.6150   -0.4473 H       1  UNL1        0.2922
     38 H          -4.0543    1.3605   -1.1756 H       1  UNL1        0.0358
     39 H          -4.5482   -0.3334   -1.0250 H       1  UNL1        0.0358
     40 H          -2.9507    0.2831    1.3843 H       1  UNL1        0.0575
     41 H          -5.8629    1.3640    3.3997 H       1  UNL1        0.0274
     42 H          -4.1083    1.7438    3.2801 H       1  UNL1        0.0274
     43 H          -4.6605    0.0254    3.4054 H       1  UNL1        0.0274
     44 H          -6.0374    2.1332    0.0513 H       1  UNL1        0.0274
     45 H          -6.5850    0.4091    0.1662 H       1  UNL1        0.0274
     46 H          -7.0234    1.5866    1.4483 H       1  UNL1        0.0274
     47 H          -3.0209   -3.2991   -1.5789 H       1  UNL1        0.2921
     48 H          -0.7292   -2.8173   -2.1452 H       1  UNL1        0.0691
@<TRIPOS>BOND
     1     1     2    1
     2     2     3    1
     3     3     4   ar
     4     4     5    1
     5     5     6    2
     6     5     7    1
     7     7     8    2
     8     8     9    1
     9     9    10   ar
    10    10    11   ar
    11    11    12   ar
    12    12    13    1
    13    12    14   ar
    14    14    15   ar
    15     4    16   ar
    16    16    17    1
    17    16    18   ar
    18    18    19    1
    19    19    20    1
    20    20    21    2
    21    21    22    1
    22    21    23    1
    23    18    24   ar
    24    24    25    1
    25    24    26   ar
    26    26     3   ar
    27    15     9   ar
    28     1    27    1
    29     1    28    1
    30     1    29    1
    31     7    30    1
    32     8    31    1
    33    10    32    1
    34    11    33    1
    35    13    34    1
    36    14    35    1
    37    15    36    1
    38    17    37    1
    39    19    38    1
    40    19    39    1
    41    20    40    1
    42    22    41    1
    43    22    42    1
    44    22    43    1
    45    23    44    1
    46    23    45    1
    47    23    46    1
    48    25    47    1
    49    26    48    1
