@<TRIPOS>MOLECULE
Phloretin
 34 35 0 0 0
SMALL
GASTEIGER

@<TRIPOS>ATOM
      1 O          -5.9830    2.1922    0.2163 O.3     1  UNL1       -0.5068
      2 C          -4.8513    1.3815    0.2657 C.ar    1  UNL1        0.1169
      3 C          -4.7840    0.2014   -0.4875 C.ar    1  UNL1       -0.0199
      4 C          -3.6427   -0.6045   -0.4299 C.ar    1  UNL1       -0.0551
      5 C          -2.5617   -0.2428    0.3904 C.ar    1  UNL1       -0.0467
      6 C          -1.3180   -1.0892    0.4263 C.3     1  UNL1       -0.0207
      7 C          -0.3295   -0.6382   -0.6549 C.3     1  UNL1        0.0147
      8 C           0.9583   -1.4110   -0.5680 C.2     1  UNL1        0.1705
      9 O           0.9377   -2.6487   -0.8093 O.2     1  UNL1       -0.2918
     10 C           2.2531   -0.7503   -0.2628 C.ar    1  UNL1        0.1003
     11 C           3.4022   -1.0856   -1.0118 C.ar    1  UNL1        0.1343
     12 O           3.3207   -2.0195   -2.0456 O.3     1  UNL1       -0.5058
     13 C           4.6294   -0.4694   -0.7317 C.ar    1  UNL1        0.0222
     14 C           4.7276    0.4823    0.2877 C.ar    1  UNL1        0.1238
     15 O           5.9439    1.1018    0.5665 O.3     1  UNL1       -0.5065
     16 C           3.5981    0.8146    1.0364 C.ar    1  UNL1        0.0222
     17 C           2.3647    0.2010    0.7767 C.ar    1  UNL1        0.1343
     18 O           1.2618    0.5222    1.5671 O.3     1  UNL1       -0.5058
     19 C          -2.6287    0.9476    1.1327 C.ar    1  UNL1       -0.0551
     20 C          -3.7710    1.7518    1.0733 C.ar    1  UNL1       -0.0199
     21 H          -6.7815    1.9520   -0.3595 H       1  UNL1        0.2921
     22 H          -5.6130   -0.0899   -1.1199 H       1  UNL1        0.0654
     23 H          -3.6006   -1.5085   -1.0248 H       1  UNL1        0.0621
     24 H          -0.8469   -1.0188    1.4306 H       1  UNL1        0.0317
     25 H          -1.5852   -2.1572    0.2667 H       1  UNL1        0.0317
     26 H          -0.7782   -0.8125   -1.6571 H       1  UNL1        0.0348
     27 H          -0.1356    0.4529   -0.5695 H       1  UNL1        0.0348
     28 H           4.1305   -2.2722   -2.5999 H       1  UNL1        0.2922
     29 H           5.5067   -0.7271   -1.3118 H       1  UNL1        0.0691
     30 H           6.7829    0.8824    0.0421 H       1  UNL1        0.2921
     31 H           3.6821    1.5456    1.8310 H       1  UNL1        0.0691
     32 H           1.3228    1.1979    2.3197 H       1  UNL1        0.2922
     33 H          -1.7963    1.2529    1.7549 H       1  UNL1        0.0621
     34 H          -3.8153    2.6654    1.6525 H       1  UNL1        0.0654
@<TRIPOS>BOND
     1     1     2    1
     2     2     3   ar
     3     3     4   ar
     4     4     5   ar
     5     5     6    1
     6     6     7    1
     7     7     8    1
     8     8     9    2
     9     8    10    1
    10    10    11   ar
    11    11    12    1
    12    11    13   ar
    13    13    14   ar
    14    14    15    1
    15    14    16   ar
    16    16    17   ar
    17    17    18    1
    18     5    19   ar
    19    19    20   ar
    20    20     2   ar
    21    17    10   ar
    22     1    21    1
    23     3    22    1
    24     4    23    1
    25     6    24    1
    26     6    25    1
    27     7    26    1
    28     7    27    1
    29    12    28    1
    30    13    29    1
    31    15    30    1
    32    16    31    1
    33    18    32    1
    34    19    33    1
    35    20    34    1
