@<TRIPOS>MOLECULE
Phloridzin
 55 57 0 0 0
SMALL
GASTEIGER

@<TRIPOS>ATOM
      1 O          -4.5790   -1.9535   -2.6627 O.3     1  UNL1       -0.3924
      2 C          -3.8137   -1.8981   -1.4885 C.3     1  UNL1        0.0731
      3 C          -3.2991   -0.4733   -1.2281 C.3     1  UNL1        0.1140
      4 O          -2.4260   -0.5124   -0.1024 O.3     1  UNL1       -0.3313
      5 C          -2.3126    0.7133    0.6174 C.3     1  UNL1        0.2308
      6 O          -1.0236    0.7777    1.2248 O.3     1  UNL1       -0.4599
      7 C          -0.5247   -0.1314    2.1738 C.ar    1  UNL1        0.1414
      8 C          -1.3230   -1.1555    2.7196 C.ar    1  UNL1        0.0226
      9 C          -0.7839   -2.0586    3.6435 C.ar    1  UNL1        0.1238
     10 O          -1.5687   -3.0761    4.1819 O.3     1  UNL1       -0.5065
     11 C           0.5516   -1.9422    4.0324 C.ar    1  UNL1        0.0222
     12 C           1.3571   -0.9241    3.5070 C.ar    1  UNL1        0.1343
     13 O           2.6837   -0.8034    3.9212 O.3     1  UNL1       -0.5058
     14 C           0.8207   -0.0166    2.5741 C.ar    1  UNL1        0.1006
     15 C           1.6628    1.0505    2.0003 C.2     1  UNL1        0.1705
     16 O           1.3360    2.2563    2.1675 O.2     1  UNL1       -0.2918
     17 C           2.8276    0.7170    1.1154 C.3     1  UNL1        0.0147
     18 C           2.3679    0.6092   -0.3413 C.3     1  UNL1       -0.0207
     19 C           3.5253    0.2611   -1.2376 C.ar    1  UNL1       -0.0467
     20 C           4.3152    1.2759   -1.8019 C.ar    1  UNL1       -0.0551
     21 C           5.4098    0.9504   -2.6087 C.ar    1  UNL1       -0.0199
     22 C           5.7314   -0.3922   -2.8507 C.ar    1  UNL1        0.1169
     23 O           6.8195   -0.7286   -3.6529 O.3     1  UNL1       -0.5068
     24 C           4.9548   -1.4056   -2.2795 C.ar    1  UNL1       -0.0199
     25 C           3.8597   -1.0826   -1.4724 C.ar    1  UNL1       -0.0551
     26 C          -2.5002    1.9656   -0.2590 C.3     1  UNL1        0.1454
     27 O          -1.5049    1.9815   -1.2539 O.3     1  UNL1       -0.3829
     28 C          -3.9184    1.9681   -0.8855 C.3     1  UNL1        0.1152
     29 O          -3.9114    2.6345   -2.1231 O.3     1  UNL1       -0.3864
     30 C          -4.4685    0.5327   -1.0750 C.3     1  UNL1        0.1120
     31 O          -5.2597    0.1666    0.0288 O.3     1  UNL1       -0.3865
     32 H          -3.9401   -1.9043   -3.4210 H       1  UNL1        0.2095
     33 H          -2.9520   -2.6002   -1.5643 H       1  UNL1        0.0584
     34 H          -4.4394   -2.2366   -0.6355 H       1  UNL1        0.0584
     35 H          -2.6995   -0.1801   -2.1189 H       1  UNL1        0.0647
     36 H          -3.0797    0.7362    1.4233 H       1  UNL1        0.1084
     37 H          -2.3598   -1.2628    2.4331 H       1  UNL1        0.0691
     38 H          -2.5415   -3.1897    3.9215 H       1  UNL1        0.2921
     39 H           0.9621   -2.6414    4.7503 H       1  UNL1        0.0691
     40 H           3.0908   -1.4426    4.5939 H       1  UNL1        0.2922
     41 H           3.5995    1.5121    1.2090 H       1  UNL1        0.0348
     42 H           3.2858   -0.2446    1.4320 H       1  UNL1        0.0348
     43 H           1.5780   -0.1698   -0.4292 H       1  UNL1        0.0317
     44 H           1.9166    1.5733   -0.6654 H       1  UNL1        0.0317
     45 H           4.0840    2.3175   -1.6159 H       1  UNL1        0.0621
     46 H           6.0088    1.7412   -3.0420 H       1  UNL1        0.0654
     47 H           7.4019   -0.0179   -4.0801 H       1  UNL1        0.2921
     48 H           5.2023   -2.4443   -2.4586 H       1  UNL1        0.0654
     49 H           3.2736   -1.8785   -1.0295 H       1  UNL1        0.0621
     50 H          -2.3948    2.8645    0.3948 H       1  UNL1        0.0683
     51 H          -1.3431    2.9323   -1.4892 H       1  UNL1        0.2102
     52 H          -4.6054    2.5115   -0.1935 H       1  UNL1        0.0648
     53 H          -3.8228    3.6039   -1.9264 H       1  UNL1        0.2100
     54 H          -5.0923    0.5000   -1.9999 H       1  UNL1        0.0647
     55 H          -6.1386    0.6142   -0.0857 H       1  UNL1        0.2100
@<TRIPOS>BOND
     1     1     2    1
     2     2     3    1
     3     3     4    1
     4     4     5    1
     5     5     6    1
     6     6     7    1
     7     7     8   ar
     8     8     9   ar
     9     9    10    1
    10     9    11   ar
    11    11    12   ar
    12    12    13    1
    13    12    14   ar
    14    14    15    1
    15    15    16    2
    16    15    17    1
    17    17    18    1
    18    18    19    1
    19    19    20   ar
    20    20    21   ar
    21    21    22   ar
    22    22    23    1
    23    22    24   ar
    24    24    25   ar
    25     5    26    1
    26    26    27    1
    27    26    28    1
    28    28    29    1
    29    28    30    1
    30    30    31    1
    31    30     3    1
    32    14     7   ar
    33    25    19   ar
    34     1    32    1
    35     2    33    1
    36     2    34    1
    37     3    35    1
    38     5    36    1
    39     8    37    1
    40    10    38    1
    41    11    39    1
    42    13    40    1
    43    17    41    1
    44    17    42    1
    45    18    43    1
    46    18    44    1
    47    20    45    1
    48    21    46    1
    49    23    47    1
    50    24    48    1
    51    25    49    1
    52    26    50    1
    53    27    51    1
    54    28    52    1
    55    29    53    1
    56    30    54    1
    57    31    55    1
