@<TRIPOS>MOLECULE
Phloretin 2'-O-xylosyl-glucoside
 72 75 0 0 0
SMALL
GASTEIGER

@<TRIPOS>ATOM
      1 C          -1.7489    2.9633    0.3631 C.3     1  UNL1        0.1131
      2 C          -0.9743    3.2753   -0.9238 C.3     1  UNL1        0.0730
      3 O          -1.7559    2.9777   -2.0488 O.3     1  UNL1       -0.3924
      4 O          -2.0424    1.5892    0.4389 O.3     1  UNL1       -0.3405
      5 C          -2.1891    1.2681    1.8088 C.3     1  UNL1        0.1886
      6 O          -1.4846    0.0710    2.0841 O.3     1  UNL1       -0.3366
      7 C          -2.2388   -1.0730    1.7135 C.3     1  UNL1        0.1519
      8 C          -1.2694   -2.1680    1.2423 C.3     1  UNL1        0.2312
      9 O          -0.4485   -1.6393    0.1999 O.3     1  UNL1       -0.4599
     10 C           0.6099   -2.3274   -0.4225 C.ar    1  UNL1        0.1414
     11 C           1.2356   -1.7495   -1.5518 C.ar    1  UNL1        0.1006
     12 C           0.7467   -0.4440   -2.0722 C.2     1  UNL1        0.1705
     13 O          -0.4956   -0.2464   -2.1617 O.2     1  UNL1       -0.2918
     14 C           1.6813    0.6699   -2.4706 C.3     1  UNL1        0.0147
     15 C           2.6558    1.0132   -1.3379 C.3     1  UNL1       -0.0207
     16 C           3.5066    2.1970   -1.7112 C.ar    1  UNL1       -0.0467
     17 C           3.1268    3.4946   -1.3304 C.ar    1  UNL1       -0.0551
     18 C           3.9026    4.5949   -1.7074 C.ar    1  UNL1       -0.0199
     19 C           5.0581    4.4121   -2.4740 C.ar    1  UNL1        0.1169
     20 O           5.8213    5.5177   -2.8423 O.3     1  UNL1       -0.5068
     21 C           5.4356    3.1204   -2.8657 C.ar    1  UNL1       -0.0199
     22 C           4.6615    2.0184   -2.4900 C.ar    1  UNL1       -0.0551
     23 C           2.3012   -2.4346   -2.1796 C.ar    1  UNL1        0.1343
     24 O           2.9051   -1.9173   -3.3244 O.3     1  UNL1       -0.5058
     25 C           2.7464   -3.6595   -1.6680 C.ar    1  UNL1        0.0222
     26 C           2.1338   -4.2266   -0.5530 C.ar    1  UNL1        0.1238
     27 O           2.5912   -5.4495   -0.0666 O.3     1  UNL1       -0.5065
     28 C           1.0675   -3.5680    0.0649 C.ar    1  UNL1        0.0226
     29 O          -1.9571   -3.3038    0.7401 O.3     1  UNL1       -0.3313
     30 C          -3.0398   -3.7701    1.5436 C.3     1  UNL1        0.1140
     31 C          -4.3410   -3.6592    0.7353 C.3     1  UNL1        0.0731
     32 O          -4.2550   -4.4689   -0.4051 O.3     1  UNL1       -0.3924
     33 C          -3.1671   -3.1356    2.9598 C.3     1  UNL1        0.1120
     34 O          -2.1660   -3.6849    3.7815 O.3     1  UNL1       -0.3865
     35 C          -3.0360   -1.5886    2.9364 C.3     1  UNL1        0.1155
     36 O          -4.2966   -0.9706    3.0194 O.3     1  UNL1       -0.3863
     37 C          -1.5996    2.4056    2.6594 C.3     1  UNL1        0.1341
     38 O          -2.5911    3.0422    3.4318 O.3     1  UNL1       -0.3841
     39 C          -0.9996    3.3512    1.6364 C.3     1  UNL1        0.1141
     40 O           0.3929    3.1596    1.5251 O.3     1  UNL1       -0.3864
     41 H          -2.7099    3.5269    0.3321 H       1  UNL1        0.0647
     42 H          -0.6678    4.3463   -0.9389 H       1  UNL1        0.0584
     43 H          -0.0572    2.6562   -0.9657 H       1  UNL1        0.0584
     44 H          -2.4105    3.7180   -2.1441 H       1  UNL1        0.2095
     45 H          -3.2754    1.1680    2.0397 H       1  UNL1        0.0938
     46 H          -2.9250   -0.8680    0.8563 H       1  UNL1        0.0687
     47 H          -0.6126   -2.4615    2.0917 H       1  UNL1        0.1084
     48 H           1.0848    1.5734   -2.7228 H       1  UNL1        0.0348
     49 H           2.2366    0.4001   -3.3910 H       1  UNL1        0.0348
     50 H           2.0874    1.2317   -0.4077 H       1  UNL1        0.0317
     51 H           3.3120    0.1414   -1.1247 H       1  UNL1        0.0317
     52 H           2.2328    3.6550   -0.7417 H       1  UNL1        0.0621
     53 H           3.6041    5.5909   -1.4057 H       1  UNL1        0.0654
     54 H           6.6630    5.4186   -3.3978 H       1  UNL1        0.2921
     55 H           6.3257    2.9700   -3.4633 H       1  UNL1        0.0654
     56 H           4.9597    1.0266   -2.8072 H       1  UNL1        0.0621
     57 H           3.6674   -2.3966   -3.7893 H       1  UNL1        0.2922
     58 H           3.5656   -4.1807   -2.1477 H       1  UNL1        0.0691
     59 H           2.1680   -5.8910    0.7415 H       1  UNL1        0.2921
     60 H           0.6096   -4.0292    0.9283 H       1  UNL1        0.0691
     61 H          -2.8747   -4.8588    1.7051 H       1  UNL1        0.0647
     62 H          -4.5074   -2.6074    0.4209 H       1  UNL1        0.0584
     63 H          -5.2038   -3.9919    1.3550 H       1  UNL1        0.0584
     64 H          -5.1155   -4.3591   -0.8875 H       1  UNL1        0.2095
     65 H          -4.1595   -3.4159    3.3873 H       1  UNL1        0.0647
     66 H          -2.4497   -3.5407    4.7224 H       1  UNL1        0.2100
     67 H          -2.4813   -1.2861    3.8528 H       1  UNL1        0.0648
     68 H          -4.8234   -1.2422    2.2255 H       1  UNL1        0.2100
     69 H          -0.8156    2.0284    3.3537 H       1  UNL1        0.0671
     70 H          -3.2788    3.4069    2.8144 H       1  UNL1        0.2101
     71 H          -1.1915    4.4156    1.8964 H       1  UNL1        0.0648
     72 H           0.5595    2.1988    1.3347 H       1  UNL1        0.2100
@<TRIPOS>BOND
     1     1     2    1
     2     2     3    1
     3     1     4    1
     4     4     5    1
     5     5     6    1
     6     6     7    1
     7     7     8    1
     8     8     9    1
     9     9    10    1
    10    10    11   ar
    11    11    12    1
    12    12    13    2
    13    12    14    1
    14    14    15    1
    15    15    16    1
    16    16    17   ar
    17    17    18   ar
    18    18    19   ar
    19    19    20    1
    20    19    21   ar
    21    21    22   ar
    22    11    23   ar
    23    23    24    1
    24    23    25   ar
    25    25    26   ar
    26    26    27    1
    27    26    28   ar
    28     8    29    1
    29    29    30    1
    30    30    31    1
    31    31    32    1
    32    30    33    1
    33    33    34    1
    34    33    35    1
    35    35    36    1
    36     5    37    1
    37    37    38    1
    38    37    39    1
    39    39    40    1
    40    39     1    1
    41    35     7    1
    42    28    10   ar
    43    22    16   ar
    44     1    41    1
    45     2    42    1
    46     2    43    1
    47     3    44    1
    48     5    45    1
    49     7    46    1
    50     8    47    1
    51    14    48    1
    52    14    49    1
    53    15    50    1
    54    15    51    1
    55    17    52    1
    56    18    53    1
    57    20    54    1
    58    21    55    1
    59    22    56    1
    60    24    57    1
    61    25    58    1
    62    27    59    1
    63    28    60    1
    64    30    61    1
    65    31    62    1
    66    31    63    1
    67    32    64    1
    68    33    65    1
    69    34    66    1
    70    35    67    1
    71    36    68    1
    72    37    69    1
    73    38    70    1
    74    39    71    1
    75    40    72    1
