@<TRIPOS>MOLECULE
3-Hydroxyphloretin 2'-O-xylosyl-glucoside
 73 76 0 0 0
SMALL
GASTEIGER

@<TRIPOS>ATOM
      1 C           7.9984   -0.0684   -0.4654 C.3     1  UNL1        0.1069
      2 O           8.5167   -0.1361   -1.7692 O.3     1  UNL1       -0.3869
      3 C           6.9531   -1.1765   -0.2794 C.3     1  UNL1        0.0792
      4 O           5.8364   -0.9833   -1.1299 O.3     1  UNL1       -0.3461
      5 C           5.1412    0.2137   -0.8054 C.3     1  UNL1        0.1876
      6 O           4.6462    0.1803    0.5247 O.3     1  UNL1       -0.3461
      7 C           3.5041   -0.6515    0.6289 C.3     1  UNL1        0.0796
      8 C           2.2172    0.1836    0.5513 C.3     1  UNL1        0.1144
      9 O           1.1124   -0.7087    0.5527 O.3     1  UNL1       -0.3313
     10 C          -0.1005    0.0187    0.5930 C.3     1  UNL1        0.2308
     11 O          -1.1843   -0.8557    0.2863 O.3     1  UNL1       -0.4599
     12 C          -1.4083   -1.4635   -0.9613 C.ar    1  UNL1        0.1414
     13 C          -0.5365   -1.2754   -2.0512 C.ar    1  UNL1        0.0226
     14 C          -0.8040   -1.8790   -3.2850 C.ar    1  UNL1        0.1238
     15 O           0.0545   -1.6932   -4.3666 O.3     1  UNL1       -0.5065
     16 C          -1.9397   -2.6756   -3.4382 C.ar    1  UNL1        0.0222
     17 C          -2.8143   -2.8812   -2.3673 C.ar    1  UNL1        0.1343
     18 O          -3.9239   -3.7057   -2.5655 O.3     1  UNL1       -0.5058
     19 C          -2.5519   -2.2696   -1.1218 C.ar    1  UNL1        0.1006
     20 C          -3.4724   -2.4417    0.0159 C.2     1  UNL1        0.1705
     21 O          -3.1053   -3.1152    1.0157 O.2     1  UNL1       -0.2918
     22 C          -4.7901   -1.7260    0.0440 C.3     1  UNL1        0.0147
     23 C          -4.6300   -0.3442    0.6843 C.3     1  UNL1       -0.0205
     24 C          -5.9482    0.3808    0.7147 C.ar    1  UNL1       -0.0433
     25 C          -6.3487    1.1672   -0.3774 C.ar    1  UNL1       -0.0133
     26 C          -7.5909    1.8179   -0.3652 C.ar    1  UNL1        0.1585
     27 O          -7.9859    2.6043   -1.4460 O.3     1  UNL1       -0.5033
     28 C          -8.4424    1.6762    0.7383 C.ar    1  UNL1        0.1582
     29 O          -9.6757    2.3252    0.7478 O.3     1  UNL1       -0.5033
     30 C          -8.0505    0.8810    1.8239 C.ar    1  UNL1       -0.0163
     31 C          -6.8127    0.2324    1.8104 C.ar    1  UNL1       -0.0549
     32 C          -0.3145    0.6082    2.0039 C.3     1  UNL1        0.1454
     33 O          -1.0308    1.8118    1.8933 O.3     1  UNL1       -0.3829
     34 C           1.0381    0.8531    2.7234 C.3     1  UNL1        0.1152
     35 O           1.4280   -0.3062    3.4166 O.3     1  UNL1       -0.3864
     36 C           2.1434    1.2258    1.7191 C.3     1  UNL1        0.1120
     37 O           1.8784    2.5055    1.2030 O.3     1  UNL1       -0.3865
     38 C           6.0417    1.4535   -1.0004 C.3     1  UNL1        0.1341
     39 O           6.3367    1.6201   -2.3642 O.3     1  UNL1       -0.3841
     40 C           7.3583    1.3087   -0.2096 C.3     1  UNL1        0.1137
     41 O           7.1177    1.4578    1.1672 O.3     1  UNL1       -0.3864
     42 H           8.8203   -0.2366    0.2696 H       1  UNL1        0.0643
     43 H           9.3597    0.3884   -1.7702 H       1  UNL1        0.2100
     44 H           7.4208   -2.1507   -0.5358 H       1  UNL1        0.0587
     45 H           6.6429   -1.2518    0.7868 H       1  UNL1        0.0587
     46 H           4.2989    0.3252   -1.5273 H       1  UNL1        0.0937
     47 H           3.4793   -1.4621   -0.1381 H       1  UNL1        0.0587
     48 H           3.5394   -1.1651    1.6133 H       1  UNL1        0.0587
     49 H           2.2389    0.7174   -0.4265 H       1  UNL1        0.0647
     50 H          -0.0987    0.8449   -0.1591 H       1  UNL1        0.1084
     51 H           0.3468   -0.6597   -1.9556 H       1  UNL1        0.0691
     52 H           0.8881   -1.1221   -4.2899 H       1  UNL1        0.2921
     53 H          -2.1410   -3.1440   -4.3937 H       1  UNL1        0.0691
     54 H          -4.5764   -3.9353   -1.8265 H       1  UNL1        0.2922
     55 H          -5.1798   -1.6145   -0.9915 H       1  UNL1        0.0348
     56 H          -5.5225   -2.3286    0.6246 H       1  UNL1        0.0348
     57 H          -3.8879    0.2530    0.1091 H       1  UNL1        0.0317
     58 H          -4.2345   -0.4524    1.7187 H       1  UNL1        0.0317
     59 H          -5.6972    1.2725   -1.2366 H       1  UNL1        0.0658
     60 H          -7.3925    2.7254   -2.2584 H       1  UNL1        0.2923
     61 H         -10.3129    2.2409    1.5312 H       1  UNL1        0.2923
     62 H          -8.7061    0.7623    2.6771 H       1  UNL1        0.0655
     63 H          -6.5284   -0.3860    2.6528 H       1  UNL1        0.0621
     64 H          -0.9126   -0.1174    2.6061 H       1  UNL1        0.0683
     65 H          -1.4171    2.0006    2.7884 H       1  UNL1        0.2102
     66 H           0.9322    1.6911    3.4530 H       1  UNL1        0.0648
     67 H           0.8791   -0.3464    4.2431 H       1  UNL1        0.2100
     68 H           3.1044    1.2662    2.2852 H       1  UNL1        0.0647
     69 H           2.7186    2.8211    0.7779 H       1  UNL1        0.2100
     70 H           5.5023    2.3574   -0.6299 H       1  UNL1        0.0671
     71 H           5.5293    2.0119   -2.7890 H       1  UNL1        0.2101
     72 H           8.0734    2.0992   -0.5391 H       1  UNL1        0.0647
     73 H           6.9725    2.4263    1.3315 H       1  UNL1        0.2100
@<TRIPOS>BOND
     1     1     2    1
     2     1     3    1
     3     3     4    1
     4     4     5    1
     5     5     6    1
     6     6     7    1
     7     7     8    1
     8     8     9    1
     9     9    10    1
    10    10    11    1
    11    11    12    1
    12    12    13   ar
    13    13    14   ar
    14    14    15    1
    15    14    16   ar
    16    16    17   ar
    17    17    18    1
    18    17    19   ar
    19    19    20    1
    20    20    21    2
    21    20    22    1
    22    22    23    1
    23    23    24    1
    24    24    25   ar
    25    25    26   ar
    26    26    27    1
    27    26    28   ar
    28    28    29    1
    29    28    30   ar
    30    30    31   ar
    31    10    32    1
    32    32    33    1
    33    32    34    1
    34    34    35    1
    35    34    36    1
    36    36    37    1
    37     5    38    1
    38    38    39    1
    39    38    40    1
    40    40    41    1
    41    40     1    1
    42    36     8    1
    43    19    12   ar
    44    31    24   ar
    45     1    42    1
    46     2    43    1
    47     3    44    1
    48     3    45    1
    49     5    46    1
    50     7    47    1
    51     7    48    1
    52     8    49    1
    53    10    50    1
    54    13    51    1
    55    15    52    1
    56    16    53    1
    57    18    54    1
    58    22    55    1
    59    22    56    1
    60    23    57    1
    61    23    58    1
    62    25    59    1
    63    27    60    1
    64    29    61    1
    65    30    62    1
    66    31    63    1
    67    32    64    1
    68    33    65    1
    69    34    66    1
    70    35    67    1
    71    36    68    1
    72    37    69    1
    73    38    70    1
    74    39    71    1
    75    40    72    1
    76    41    73    1
