@<TRIPOS>MOLECULE
3-Hydroxyphloretin 2'-O-glucoside
 56 58 0 0 0
SMALL
GASTEIGER

@<TRIPOS>ATOM
      1 C          -3.5017   -1.1935    0.3761 C.3     1  UNL1        0.1140
      2 C          -3.7725   -1.5430    1.8458 C.3     1  UNL1        0.0731
      3 O          -4.1372   -0.3942    2.5624 O.3     1  UNL1       -0.3924
      4 O          -2.4604   -0.2391    0.3200 O.3     1  UNL1       -0.3313
      5 C          -2.4117    0.3741   -0.9603 C.3     1  UNL1        0.2308
      6 O          -1.2218    1.1568   -1.0450 O.3     1  UNL1       -0.4599
      7 C          -0.9034    2.2469   -0.2158 C.ar    1  UNL1        0.1414
      8 C          -1.8109    2.7526    0.7349 C.ar    1  UNL1        0.0226
      9 C          -1.4499    3.8243    1.5592 C.ar    1  UNL1        0.1238
     10 O          -2.3421    4.3231    2.5059 O.3     1  UNL1       -0.5065
     11 C          -0.1857    4.4027    1.4349 C.ar    1  UNL1        0.0222
     12 C           0.7260    3.9236    0.4900 C.ar    1  UNL1        0.1343
     13 O           1.9682    4.5534    0.3875 O.3     1  UNL1       -0.5058
     14 C           0.3699    2.8364   -0.3380 C.ar    1  UNL1        0.1006
     15 C           1.3250    2.2818   -1.3135 C.2     1  UNL1        0.1705
     16 O           1.1128    2.4340   -2.5462 O.2     1  UNL1       -0.2918
     17 C           2.4754    1.4358   -0.8547 C.3     1  UNL1        0.0147
     18 C           2.0255   -0.0165   -0.6741 C.3     1  UNL1       -0.0205
     19 C           3.1763   -0.8781   -0.2304 C.ar    1  UNL1       -0.0433
     20 C           3.4662   -1.0228    1.1358 C.ar    1  UNL1       -0.0133
     21 C           4.5565   -1.8012    1.5507 C.ar    1  UNL1        0.1585
     22 O           4.8408   -1.9510    2.9069 O.3     1  UNL1       -0.5033
     23 C           5.3674   -2.4313    0.5976 C.ar    1  UNL1        0.1582
     24 O           6.4493   -3.2051    1.0133 O.3     1  UNL1       -0.5033
     25 C           5.0874   -2.2776   -0.7672 C.ar    1  UNL1       -0.0163
     26 C           4.0011   -1.5013   -1.1796 C.ar    1  UNL1       -0.0549
     27 C          -2.4089   -0.6601   -2.1272 C.3     1  UNL1        0.1454
     28 O          -3.6401   -0.6208   -2.8040 O.3     1  UNL1       -0.3829
     29 C          -2.1687   -2.0963   -1.6176 C.3     1  UNL1        0.1152
     30 O          -0.8159   -2.2810   -1.2721 O.3     1  UNL1       -0.3864
     31 C          -3.1081   -2.4568   -0.4364 C.3     1  UNL1        0.1120
     32 O          -4.2669   -3.0721   -0.9407 O.3     1  UNL1       -0.3865
     33 H          -4.4466   -0.7636   -0.0369 H       1  UNL1        0.0647
     34 H          -4.5751   -2.3113    1.9221 H       1  UNL1        0.0584
     35 H          -2.8524   -1.9645    2.3047 H       1  UNL1        0.0584
     36 H          -5.0759   -0.1890    2.3123 H       1  UNL1        0.2095
     37 H          -3.2817    1.0605   -1.0765 H       1  UNL1        0.1084
     38 H          -2.7957    2.3211    0.8465 H       1  UNL1        0.0691
     39 H          -3.2673    3.9266    2.6233 H       1  UNL1        0.2921
     40 H           0.0877    5.2352    2.0713 H       1  UNL1        0.0691
     41 H           2.6604    4.2931   -0.3036 H       1  UNL1        0.2922
     42 H           2.8684    1.8266    0.1091 H       1  UNL1        0.0348
     43 H           3.2933    1.4871   -1.6066 H       1  UNL1        0.0348
     44 H           1.2112   -0.0637    0.0824 H       1  UNL1        0.0317
     45 H           1.6105   -0.4040   -1.6311 H       1  UNL1        0.0317
     46 H           2.8469   -0.5307    1.8759 H       1  UNL1        0.0658
     47 H           4.2733   -1.5073    3.6196 H       1  UNL1        0.2923
     48 H           7.0538   -3.6721    0.3474 H       1  UNL1        0.2923
     49 H           5.7132   -2.7570   -1.5091 H       1  UNL1        0.0655
     50 H           3.8031   -1.3851   -2.2380 H       1  UNL1        0.0621
     51 H          -1.5950   -0.4167   -2.8515 H       1  UNL1        0.0683
     52 H          -3.6355    0.2017   -3.3604 H       1  UNL1        0.2102
     53 H          -2.3729   -2.7954   -2.4590 H       1  UNL1        0.0648
     54 H          -0.6236   -1.7381   -0.4652 H       1  UNL1        0.2100
     55 H          -2.5641   -3.1825    0.2149 H       1  UNL1        0.0647
     56 H          -4.6781   -3.5747   -0.1900 H       1  UNL1        0.2100
@<TRIPOS>BOND
     1     1     2    1
     2     2     3    1
     3     1     4    1
     4     4     5    1
     5     5     6    1
     6     6     7    1
     7     7     8   ar
     8     8     9   ar
     9     9    10    1
    10     9    11   ar
    11    11    12   ar
    12    12    13    1
    13    12    14   ar
    14    14    15    1
    15    15    16    2
    16    15    17    1
    17    17    18    1
    18    18    19    1
    19    19    20   ar
    20    20    21   ar
    21    21    22    1
    22    21    23   ar
    23    23    24    1
    24    23    25   ar
    25    25    26   ar
    26     5    27    1
    27    27    28    1
    28    27    29    1
    29    29    30    1
    30    29    31    1
    31    31    32    1
    32    31     1    1
    33    14     7   ar
    34    26    19   ar
    35     1    33    1
    36     2    34    1
    37     2    35    1
    38     3    36    1
    39     5    37    1
    40     8    38    1
    41    10    39    1
    42    11    40    1
    43    13    41    1
    44    17    42    1
    45    17    43    1
    46    18    44    1
    47    18    45    1
    48    20    46    1
    49    22    47    1
    50    24    48    1
    51    25    49    1
    52    26    50    1
    53    27    51    1
    54    28    52    1
    55    29    53    1
    56    30    54    1
    57    31    55    1
    58    32    56    1
