@<TRIPOS>MOLECULE
Dihydroquercetin 3-O-rhamnoside
 54 57 0 0 0
SMALL
GASTEIGER

@<TRIPOS>ATOM
      1 C           2.4594   -1.5685    1.8216 C.3     1  UNL1       -0.0361
      2 C           3.1828   -0.8704    0.6646 C.3     1  UNL1        0.0873
      3 O           2.4242    0.2441    0.2019 O.3     1  UNL1       -0.3431
      4 C           1.5189   -0.1213   -0.8274 C.3     1  UNL1        0.1888
      5 O           0.6326    0.9524   -1.0823 O.3     1  UNL1       -0.3335
      6 C          -0.2897    1.1294   -0.0152 C.3     1  UNL1        0.1650
      7 C          -1.7016    0.7131   -0.4821 C.3     1  UNL1        0.1586
      8 O          -2.6848    1.0965    0.4819 O.3     1  UNL1       -0.4802
      9 C          -2.6638    2.3488    1.1045 C.ar    1  UNL1        0.1391
     10 C          -3.8020    2.7996    1.7783 C.ar    1  UNL1        0.0225
     11 C          -3.8094    4.0576    2.3847 C.ar    1  UNL1        0.1238
     12 O          -4.9557    4.4955    3.0441 O.3     1  UNL1       -0.5065
     13 C          -2.6680    4.8666    2.3234 C.ar    1  UNL1        0.0222
     14 C          -1.5120    4.4180    1.6671 C.ar    1  UNL1        0.1344
     15 O          -0.3800    5.2321    1.6325 O.3     1  UNL1       -0.5058
     16 C          -1.5036    3.1448    1.0566 C.ar    1  UNL1        0.1033
     17 C          -0.3027    2.5810    0.3921 C.2     1  UNL1        0.2027
     18 O           0.7335    3.2809    0.2285 O.2     1  UNL1       -0.2889
     19 C          -1.7780   -0.7762   -0.7184 C.ar    1  UNL1       -0.0007
     20 C          -1.8109   -1.6684    0.3660 C.ar    1  UNL1       -0.0098
     21 C          -1.8047   -3.0531    0.1587 C.ar    1  UNL1        0.1586
     22 O          -1.8333   -3.8805    1.2831 O.3     1  UNL1       -0.5033
     23 C          -1.7643   -3.5593   -1.1621 C.ar    1  UNL1        0.1582
     24 O          -1.7572   -4.9262   -1.4468 O.3     1  UNL1       -0.5033
     25 C          -1.7268   -2.6668   -2.2392 C.ar    1  UNL1       -0.0162
     26 C          -1.7294   -1.2880   -2.0228 C.ar    1  UNL1       -0.0513
     27 C           2.2929   -0.4463   -2.1241 C.3     1  UNL1        0.1341
     28 O           1.4894   -1.2713   -2.9316 O.3     1  UNL1       -0.3841
     29 C           3.6502   -1.1331   -1.8109 C.3     1  UNL1        0.1140
     30 O           4.0118   -2.0341   -2.8263 O.3     1  UNL1       -0.3864
     31 C           3.5791   -1.8720   -0.4633 C.3     1  UNL1        0.1095
     32 O           4.7951   -2.5143   -0.1660 O.3     1  UNL1       -0.3866
     33 H           2.2221   -0.8298    2.6161 H       1  UNL1        0.0255
     34 H           1.5126   -2.0361    1.4792 H       1  UNL1        0.0255
     35 H           3.1099   -2.3573    2.2557 H       1  UNL1        0.0255
     36 H           4.1198   -0.4472    1.0877 H       1  UNL1        0.0621
     37 H           0.9369   -1.0286   -0.5371 H       1  UNL1        0.0938
     38 H          -0.0300    0.5532    0.9066 H       1  UNL1        0.0722
     39 H          -1.9314    1.2544   -1.4280 H       1  UNL1        0.0815
     40 H          -4.6861    2.1757    1.8192 H       1  UNL1        0.0691
     41 H          -4.9942    5.4028    3.4938 H       1  UNL1        0.2921
     42 H          -2.6762    5.8421    2.7934 H       1  UNL1        0.0691
     43 H          -0.3687    6.1470    2.0682 H       1  UNL1        0.2922
     44 H          -1.8252   -1.2868    1.3798 H       1  UNL1        0.0659
     45 H          -1.8243   -4.8894    1.2420 H       1  UNL1        0.2923
     46 H          -1.7856   -5.6496   -0.7429 H       1  UNL1        0.2923
     47 H          -1.6874   -3.0460   -3.2526 H       1  UNL1        0.0655
     48 H          -1.6790   -0.6204   -2.8740 H       1  UNL1        0.0623
     49 H           2.5079    0.5121   -2.6559 H       1  UNL1        0.0671
     50 H           1.7416   -1.0920   -3.8749 H       1  UNL1        0.2101
     51 H           4.4341   -0.3427   -1.7241 H       1  UNL1        0.0648
     52 H           4.3027   -1.4864   -3.6017 H       1  UNL1        0.2100
     53 H           2.7976   -2.6601   -0.5520 H       1  UNL1        0.0646
     54 H           5.5107   -1.8259   -0.1693 H       1  UNL1        0.2100
@<TRIPOS>BOND
     1     1     2    1
     2     2     3    1
     3     3     4    1
     4     4     5    1
     5     5     6    1
     6     6     7    1
     7     7     8    1
     8     8     9    1
     9     9    10   ar
    10    10    11   ar
    11    11    12    1
    12    11    13   ar
    13    13    14   ar
    14    14    15    1
    15    14    16   ar
    16    16    17    1
    17    17    18    2
    18     7    19    1
    19    19    20   ar
    20    20    21   ar
    21    21    22    1
    22    21    23   ar
    23    23    24    1
    24    23    25   ar
    25    25    26   ar
    26     4    27    1
    27    27    28    1
    28    27    29    1
    29    29    30    1
    30    29    31    1
    31    31    32    1
    32    31     2    1
    33    17     6    1
    34    26    19   ar
    35    16     9   ar
    36     1    33    1
    37     1    34    1
    38     1    35    1
    39     2    36    1
    40     4    37    1
    41     6    38    1
    42     7    39    1
    43    10    40    1
    44    12    41    1
    45    13    42    1
    46    15    43    1
    47    20    44    1
    48    22    45    1
    49    24    46    1
    50    25    47    1
    51    26    48    1
    52    27    49    1
    53    28    50    1
    54    29    51    1
    55    30    52    1
    56    31    53    1
    57    32    54    1
