@<TRIPOS>MOLECULE
Dihydroquercetin
 34 36 0 0 0
SMALL
GASTEIGER

@<TRIPOS>ATOM
      1 O          -0.4678   -2.1360   -1.6555 O.3     1  UNL1       -0.3798
      2 C           0.1532   -1.4015   -0.6307 C.3     1  UNL1        0.1585
      3 C          -0.2969    0.0686   -0.7058 C.3     1  UNL1        0.1582
      4 O           0.4481    0.8709    0.2148 O.3     1  UNL1       -0.4802
      5 C           1.8177    0.6857    0.4459 C.ar    1  UNL1        0.1391
      6 C           2.5253    1.6693    1.1408 C.ar    1  UNL1        0.0225
      7 C           3.8922    1.5213    1.3755 C.ar    1  UNL1        0.1238
      8 O           4.5859    2.5230    2.0510 O.3     1  UNL1       -0.5065
      9 C           4.5514    0.3672    0.9384 C.ar    1  UNL1        0.0222
     10 C           3.8533   -0.6496    0.2754 C.ar    1  UNL1        0.1344
     11 O           4.5603   -1.8110   -0.0441 O.3     1  UNL1       -0.5058
     12 C           2.4725   -0.4790   -0.0086 C.ar    1  UNL1        0.1033
     13 C           1.6534   -1.4552   -0.7686 C.2     1  UNL1        0.2024
     14 O           2.1826   -2.2837   -1.5570 O.2     1  UNL1       -0.2889
     15 C          -1.7736    0.1990   -0.4153 C.ar    1  UNL1       -0.0007
     16 C          -2.6912    0.3594   -1.4673 C.ar    1  UNL1       -0.0098
     17 C          -4.0656    0.4519   -1.2042 C.ar    1  UNL1        0.1586
     18 O          -4.9741    0.6172   -2.2482 O.3     1  UNL1       -0.5033
     19 C          -4.5309    0.3760    0.1147 C.ar    1  UNL1        0.1582
     20 O          -5.8974    0.4696    0.3723 O.3     1  UNL1       -0.5033
     21 C          -3.6209    0.2039    1.1660 C.ar    1  UNL1       -0.0162
     22 C          -2.2517    0.1111    0.9034 C.ar    1  UNL1       -0.0513
     23 H          -0.4345   -3.0908   -1.3848 H       1  UNL1        0.2105
     24 H          -0.1222   -1.8192    0.3662 H       1  UNL1        0.0718
     25 H          -0.0823    0.4494   -1.7303 H       1  UNL1        0.0815
     26 H           2.0127    2.5585    1.4861 H       1  UNL1        0.0691
     27 H           5.5786    2.4453    2.2395 H       1  UNL1        0.2921
     28 H           5.6080    0.2437    1.1418 H       1  UNL1        0.0691
     29 H           4.1251   -2.6752   -0.3318 H       1  UNL1        0.2922
     30 H          -2.3406    0.4105   -2.4908 H       1  UNL1        0.0659
     31 H          -4.6686    0.6749   -3.2128 H       1  UNL1        0.2923
     32 H          -6.2637    0.4173    1.3158 H       1  UNL1        0.2923
     33 H          -3.9741    0.1387    2.1872 H       1  UNL1        0.0655
     34 H          -1.5640   -0.0312    1.7278 H       1  UNL1        0.0623
@<TRIPOS>BOND
     1     1     2    1
     2     2     3    1
     3     3     4    1
     4     4     5    1
     5     5     6   ar
     6     6     7   ar
     7     7     8    1
     8     7     9   ar
     9     9    10   ar
    10    10    11    1
    11    10    12   ar
    12    12    13    1
    13    13    14    2
    14     3    15    1
    15    15    16   ar
    16    16    17   ar
    17    17    18    1
    18    17    19   ar
    19    19    20    1
    20    19    21   ar
    21    21    22   ar
    22    13     2    1
    23    22    15   ar
    24    12     5   ar
    25     1    23    1
    26     2    24    1
    27     3    25    1
    28     6    26    1
    29     8    27    1
    30     9    28    1
    31    11    29    1
    32    16    30    1
    33    18    31    1
    34    20    32    1
    35    21    33    1
    36    22    34    1
