@<TRIPOS>MOLECULE
Cyanidin 3-O-(6''-malonyl-glucoside)
 61 64 0 0 0
SMALL
GASTEIGER

@<TRIPOS>ATOM
      1 O          -1.1813   -2.9186    2.7195 O.3     1  UNL1       -0.3864
      2 C          -1.0720   -3.1309    1.3351 C.3     1  UNL1        0.1130
      3 C           0.1343   -2.3092    0.7628 C.3     1  UNL1        0.1250
      4 C           1.0490   -3.1909   -0.0925 C.3     1  UNL1        0.1212
      5 O           1.6430   -4.2041    0.7141 O.3     1  UNL1       -0.4616
      6 C           2.5288   -5.1546    0.2001 C.2     1  UNL1        0.3180
      7 O           2.8538   -5.1399   -1.0187 O.2     1  UNL1       -0.2502
      8 C           3.1294   -6.1682    1.1176 C.3     1  UNL1        0.1418
      9 C           4.3065   -5.5786    1.8230 C.2     1  UNL1        0.3155
     10 O           4.1193   -4.8536    2.9958 O.3     1  UNL1       -0.4802
     11 O           5.4623   -5.7029    1.3365 O.2     1  UNL1       -0.2504
     12 O          -0.2799   -1.2065   -0.0303 O.3     1  UNL1       -0.3302
     13 C          -1.2445   -0.4395    0.6633 C.3     1  UNL1        0.2313
     14 O          -1.4042    0.8188    0.0109 O.3     1  UNL1       -0.4515
     15 C          -0.4019    1.7942   -0.1301 C.ar    1  UNL1        0.2288
     16 C           0.8654    1.6552    0.4607 C.ar    1  UNL1        0.0093
     17 C           1.8213    2.6759    0.3329 C.ar    1  UNL1        0.1241
     18 C           3.1204    2.6043    0.9016 C.ar    1  UNL1        0.1366
     19 O           3.5809    1.4996    1.6243 O.3     1  UNL1       -0.5057
     20 C           4.0019    3.6804    0.7404 C.ar    1  UNL1        0.0225
     21 C           3.6210    4.8197    0.0228 C.ar    1  UNL1        0.1293
     22 O           4.5026    5.8869   -0.1349 O.3     1  UNL1       -0.5063
     23 C           2.3477    4.8904   -0.5425 C.ar    1  UNL1        0.0847
     24 C           1.4490    3.8309   -0.3942 C.ar    1  UNL1        0.3708
     25 O           0.2446    3.9240   -0.9459 O.2     1  UNL1       -0.1997
     26 C          -0.6747    2.9670   -0.8602 C.ar    1  UNL1        0.4046
     27 C          -1.9755    3.1860   -1.5332 C.ar    1  UNL1        0.0865
     28 C          -2.5971    2.1664   -2.2747 C.ar    1  UNL1       -0.0003
     29 C          -3.8199    2.3890   -2.9202 C.ar    1  UNL1        0.1591
     30 O          -4.3826    1.3289   -3.6340 O.3     1  UNL1       -0.5033
     31 C          -4.4316    3.6621   -2.8340 C.ar    1  UNL1        0.1583
     32 O          -5.6533    3.9556   -3.4429 O.3     1  UNL1       -0.5033
     33 C          -3.7974    4.6812   -2.1151 C.ar    1  UNL1       -0.0157
     34 C          -2.5778    4.4502   -1.4763 C.ar    1  UNL1       -0.0418
     35 C          -2.5948   -1.1880    0.6485 C.3     1  UNL1        0.1454
     36 O          -3.4076   -0.7695    1.7172 O.3     1  UNL1       -0.3829
     37 C          -2.3974   -2.7301    0.6569 C.3     1  UNL1        0.1152
     38 O          -2.3903   -3.2170   -0.6621 O.3     1  UNL1       -0.3864
     39 H          -0.4429   -3.4274    3.1463 H       1  UNL1        0.2100
     40 H          -0.9298   -4.2241    1.1599 H       1  UNL1        0.0647
     41 H           0.7615   -1.9263    1.6016 H       1  UNL1        0.0658
     42 H           0.4646   -3.6565   -0.9164 H       1  UNL1        0.0724
     43 H           1.8515   -2.5621   -0.5374 H       1  UNL1        0.0724
     44 H           3.4410   -7.0676    0.5429 H       1  UNL1        0.0493
     45 H           2.3706   -6.4848    1.8644 H       1  UNL1        0.0493
     46 H           4.9049   -4.4329    3.4774 H       1  UNL1        0.2951
     47 H          -0.9274   -0.2468    1.7164 H       1  UNL1        0.1084
     48 H           1.0814    0.7652    1.0244 H       1  UNL1        0.0667
     49 H           3.0482    0.6571    1.7843 H       1  UNL1        0.2922
     50 H           4.9923    3.6273    1.1754 H       1  UNL1        0.0691
     51 H           5.4346    5.8675    0.2624 H       1  UNL1        0.2921
     52 H           2.0554    5.7722   -1.0995 H       1  UNL1        0.0749
     53 H          -2.1234    1.1979   -2.3763 H       1  UNL1        0.0664
     54 H          -5.2536    1.3892   -4.1414 H       1  UNL1        0.2923
     55 H          -6.1937    3.2887   -3.9747 H       1  UNL1        0.2923
     56 H          -4.2549    5.6604   -2.0502 H       1  UNL1        0.0655
     57 H          -2.1103    5.2567   -0.9243 H       1  UNL1        0.0628
     58 H          -3.1310   -0.9170   -0.2884 H       1  UNL1        0.0683
     59 H          -2.9659   -1.0460    2.5615 H       1  UNL1        0.2102
     60 H          -3.2352   -3.2127    1.2148 H       1  UNL1        0.0648
     61 H          -3.3354   -3.2424   -0.9657 H       1  UNL1        0.2100
@<TRIPOS>UNITY_ATOM_ATTR
25 1
charge 1
@<TRIPOS>BOND
     1     1     2    1
     2     2     3    1
     3     3     4    1
     4     4     5    1
     5     5     6    1
     6     6     7    2
     7     6     8    1
     8     8     9    1
     9     9    10    1
    10     9    11    2
    11     3    12    1
    12    12    13    1
    13    13    14    1
    14    14    15    1
    15    15    16   ar
    16    16    17   ar
    17    17    18   ar
    18    18    19    1
    19    18    20   ar
    20    20    21   ar
    21    21    22    1
    22    21    23   ar
    23    23    24   ar
    24    24    25   ar
    25    25    26   ar
    26    26    27    1
    27    27    28   ar
    28    28    29   ar
    29    29    30    1
    30    29    31   ar
    31    31    32    1
    32    31    33   ar
    33    33    34   ar
    34    13    35    1
    35    35    36    1
    36    35    37    1
    37    37    38    1
    38    37     2    1
    39    26    15   ar
    40    34    27   ar
    41    24    17   ar
    42     1    39    1
    43     2    40    1
    44     3    41    1
    45     4    42    1
    46     4    43    1
    47     8    44    1
    48     8    45    1
    49    10    46    1
    50    13    47    1
    51    16    48    1
    52    19    49    1
    53    20    50    1
    54    22    51    1
    55    23    52    1
    56    28    53    1
    57    30    54    1
    58    32    55    1
    59    33    56    1
    60    34    57    1
    61    35    58    1
    62    36    59    1
    63    37    60    1
    64    38    61    1
