@<TRIPOS>MOLECULE
Dihydromyricetin 3-O-rhamnoside
 55 58 0 0 0
SMALL
GASTEIGER

@<TRIPOS>ATOM
      1 C           4.6911    1.4050   -2.2459 C.3     1  UNL1       -0.0361
      2 C           3.7997    0.8660   -1.1257 C.3     1  UNL1        0.0873
      3 O           2.4488    0.9629   -1.5477 O.3     1  UNL1       -0.3431
      4 C           1.5818    0.3452   -0.6122 C.3     1  UNL1        0.1888
      5 O           0.2715    0.3742   -1.1535 O.3     1  UNL1       -0.3335
      6 C          -0.5221   -0.7079   -0.6868 C.3     1  UNL1        0.1650
      7 C          -1.9781   -0.2315   -0.5366 C.3     1  UNL1        0.1587
      8 O          -2.8382   -1.3332   -0.2318 O.3     1  UNL1       -0.4802
      9 C          -2.6910   -2.5933   -0.8274 C.ar    1  UNL1        0.1391
     10 C          -3.7167   -3.5313   -0.6905 C.ar    1  UNL1        0.0225
     11 C          -3.6036   -4.7913   -1.2853 C.ar    1  UNL1        0.1238
     12 O          -4.6313   -5.7249   -1.1716 O.3     1  UNL1       -0.5065
     13 C          -2.4471   -5.1225   -1.9943 C.ar    1  UNL1        0.0222
     14 C          -1.3899   -4.2115   -2.1100 C.ar    1  UNL1        0.1344
     15 O          -0.2300   -4.6508   -2.7522 O.3     1  UNL1       -0.5058
     16 C          -1.5213   -2.9141   -1.5493 C.ar    1  UNL1        0.1033
     17 C          -0.4973   -1.8477   -1.6729 C.2     1  UNL1        0.2027
     18 O           0.3453   -1.8514   -2.6099 O.2     1  UNL1       -0.2889
     19 C          -2.0906    0.8196    0.5424 C.ar    1  UNL1        0.0027
     20 C          -2.1878    2.1773    0.1990 C.ar    1  UNL1       -0.0095
     21 C          -2.2381    3.1621    1.1952 C.ar    1  UNL1        0.1623
     22 O          -2.3363    4.5075    0.8438 O.3     1  UNL1       -0.5032
     23 C          -2.1828    2.7909    2.5494 C.ar    1  UNL1        0.2006
     24 O          -2.2286    3.7530    3.5587 O.3     1  UNL1       -0.5009
     25 C          -2.0756    1.4385    2.8980 C.ar    1  UNL1        0.1623
     26 O          -2.0126    1.0759    4.2423 O.3     1  UNL1       -0.5032
     27 C          -2.0283    0.4583    1.8982 C.ar    1  UNL1       -0.0095
     28 C           1.6079    1.1301    0.7168 C.3     1  UNL1        0.1341
     29 O           1.1368    2.4364    0.4949 O.3     1  UNL1       -0.3841
     30 C           3.0455    1.1621    1.2638 C.3     1  UNL1        0.1140
     31 O           3.1005    1.9944    2.3944 O.3     1  UNL1       -0.3864
     32 C           4.0206    1.6632    0.1804 C.3     1  UNL1        0.1095
     33 O           5.3448    1.4894    0.6178 O.3     1  UNL1       -0.3866
     34 H           4.5112    0.8279   -3.1777 H       1  UNL1        0.0255
     35 H           5.7636    1.3032   -1.9757 H       1  UNL1        0.0255
     36 H           4.4648    2.4750   -2.4424 H       1  UNL1        0.0255
     37 H           4.0839   -0.2012   -0.9676 H       1  UNL1        0.0621
     38 H           1.9207   -0.7085   -0.4401 H       1  UNL1        0.0938
     39 H          -0.1891   -1.1036    0.3025 H       1  UNL1        0.0722
     40 H          -2.3117    0.1943   -1.5103 H       1  UNL1        0.0815
     41 H          -4.6083   -3.2730   -0.1329 H       1  UNL1        0.0691
     42 H          -5.4822   -5.5168   -0.6621 H       1  UNL1        0.2921
     43 H          -2.3555   -6.1082   -2.4337 H       1  UNL1        0.0691
     44 H           0.6524   -4.1612   -2.7191 H       1  UNL1        0.2922
     45 H          -2.2149    2.4728   -0.8426 H       1  UNL1        0.0659
     46 H          -2.3741    4.8019   -0.1251 H       1  UNL1        0.2923
     47 H          -2.3036    4.7427    3.3567 H       1  UNL1        0.2924
     48 H          -1.9324    0.1066    4.5271 H       1  UNL1        0.2923
     49 H          -1.9323   -0.5839    2.1774 H       1  UNL1        0.0659
     50 H           0.9571    0.6105    1.4578 H       1  UNL1        0.0671
     51 H           0.8067    2.7774    1.3668 H       1  UNL1        0.2101
     52 H           3.3247    0.1190    1.5500 H       1  UNL1        0.0648
     53 H           3.8801    1.7000    2.9337 H       1  UNL1        0.2100
     54 H           3.8187    2.7427   -0.0230 H       1  UNL1        0.0646
     55 H           5.5735    2.2819    1.1703 H       1  UNL1        0.2100
@<TRIPOS>BOND
     1     1     2    1
     2     2     3    1
     3     3     4    1
     4     4     5    1
     5     5     6    1
     6     6     7    1
     7     7     8    1
     8     8     9    1
     9     9    10   ar
    10    10    11   ar
    11    11    12    1
    12    11    13   ar
    13    13    14   ar
    14    14    15    1
    15    14    16   ar
    16    16    17    1
    17    17    18    2
    18     7    19    1
    19    19    20   ar
    20    20    21   ar
    21    21    22    1
    22    21    23   ar
    23    23    24    1
    24    23    25   ar
    25    25    26    1
    26    25    27   ar
    27     4    28    1
    28    28    29    1
    29    28    30    1
    30    30    31    1
    31    30    32    1
    32    32    33    1
    33    32     2    1
    34    17     6    1
    35    27    19   ar
    36    16     9   ar
    37     1    34    1
    38     1    35    1
    39     1    36    1
    40     2    37    1
    41     4    38    1
    42     6    39    1
    43     7    40    1
    44    10    41    1
    45    12    42    1
    46    13    43    1
    47    15    44    1
    48    20    45    1
    49    22    46    1
    50    24    47    1
    51    26    48    1
    52    27    49    1
    53    28    50    1
    54    29    51    1
    55    30    52    1
    56    31    53    1
    57    32    54    1
    58    33    55    1
