@<TRIPOS>MOLECULE
(+)-Catechin
 35 37 0 0 0
SMALL
GASTEIGER

@<TRIPOS>ATOM
      1 O          -0.7281    1.5044    2.2411 O.3     1  UNL1       -0.3875
      2 C           0.0240    1.0861    1.1313 C.3     1  UNL1        0.1004
      3 C           1.5271    1.1862    1.4528 C.3     1  UNL1        0.0092
      4 C           2.3907    0.5060    0.4110 C.ar    1  UNL1        0.0384
      5 C           3.7739    0.7857    0.3006 C.ar    1  UNL1        0.1270
      6 O           4.4253    1.6736    1.1597 O.3     1  UNL1       -0.5063
      7 C           4.5332    0.1525   -0.6904 C.ar    1  UNL1        0.0218
      8 C           3.9480   -0.7789   -1.5511 C.ar    1  UNL1        0.1238
      9 O           4.7256   -1.3939   -2.5298 O.3     1  UNL1       -0.5065
     10 C           2.5913   -1.0913   -1.4180 C.ar    1  UNL1        0.0221
     11 C           1.8179   -0.4685   -0.4351 C.ar    1  UNL1        0.1317
     12 O           0.4674   -0.8122   -0.3144 O.3     1  UNL1       -0.4811
     13 C          -0.3387   -0.3654    0.7754 C.3     1  UNL1        0.1513
     14 C          -1.7994   -0.4893    0.4097 C.ar    1  UNL1       -0.0012
     15 C          -2.2652   -0.0345   -0.8366 C.ar    1  UNL1       -0.0098
     16 C          -3.6257   -0.1250   -1.1635 C.ar    1  UNL1        0.1586
     17 O          -4.0848    0.3208   -2.4016 O.3     1  UNL1       -0.5033
     18 C          -4.5309   -0.6647   -0.2410 C.ar    1  UNL1        0.1582
     19 O          -5.8824   -0.7541   -0.5696 O.3     1  UNL1       -0.5033
     20 C          -4.0731   -1.1086    1.0066 C.ar    1  UNL1       -0.0162
     21 C          -2.7172   -1.0178    1.3322 C.ar    1  UNL1       -0.0513
     22 H          -0.6686    2.4951    2.2694 H       1  UNL1        0.2100
     23 H          -0.2000    1.7374    0.2530 H       1  UNL1        0.0637
     24 H           1.7827    2.2656    1.5112 H       1  UNL1        0.0342
     25 H           1.7310    0.7199    2.4413 H       1  UNL1        0.0342
     26 H           3.9730    2.1166    1.9485 H       1  UNL1        0.2921
     27 H           5.5883    0.3779   -0.7840 H       1  UNL1        0.0691
     28 H           4.3321   -2.0756   -3.1681 H       1  UNL1        0.2921
     29 H           2.1366   -1.8232   -2.0739 H       1  UNL1        0.0691
     30 H          -0.1139   -1.0133    1.6528 H       1  UNL1        0.0811
     31 H          -1.5721    0.3914   -1.5519 H       1  UNL1        0.0659
     32 H          -3.4547    0.7165   -3.0896 H       1  UNL1        0.2923
     33 H          -6.5607   -1.1390    0.0774 H       1  UNL1        0.2923
     34 H          -4.7683   -1.5218    1.7263 H       1  UNL1        0.0655
     35 H          -2.3844   -1.3584    2.3049 H       1  UNL1        0.0623
@<TRIPOS>BOND
     1     1     2    1
     2     2     3    1
     3     3     4    1
     4     4     5   ar
     5     5     6    1
     6     5     7   ar
     7     7     8   ar
     8     8     9    1
     9     8    10   ar
    10    10    11   ar
    11    11    12    1
    12    12    13    1
    13    13    14    1
    14    14    15   ar
    15    15    16   ar
    16    16    17    1
    17    16    18   ar
    18    18    19    1
    19    18    20   ar
    20    20    21   ar
    21    13     2    1
    22    21    14   ar
    23    11     4   ar
    24     1    22    1
    25     2    23    1
    26     3    24    1
    27     3    25    1
    28     6    26    1
    29     7    27    1
    30     9    28    1
    31    10    29    1
    32    13    30    1
    33    15    31    1
    34    17    32    1
    35    19    33    1
    36    20    34    1
    37    21    35    1
