@<TRIPOS>MOLECULE
(-)-Epicatechin
 35 37 0 0 0
SMALL
GASTEIGER

@<TRIPOS>ATOM
      1 O          -0.4351   -3.3286    0.1544 O.3     1  UNL1       -0.3875
      2 C           0.4019   -2.3464   -0.3971 C.3     1  UNL1        0.1004
      3 C           1.1617   -1.5901    0.7081 C.3     1  UNL1        0.0092
      4 C           1.9245   -0.3977    0.1659 C.ar    1  UNL1        0.0384
      5 C           2.9248    0.2443    0.9336 C.ar    1  UNL1        0.1270
      6 O           3.2334   -0.1563    2.2355 O.3     1  UNL1       -0.5063
      7 C           3.6331    1.3221    0.3898 C.ar    1  UNL1        0.0218
      8 C           3.3452    1.7880   -0.8983 C.ar    1  UNL1        0.1238
      9 O           4.0524    2.8587   -1.4408 O.3     1  UNL1       -0.5065
     10 C           2.3352    1.1806   -1.6460 C.ar    1  UNL1        0.0221
     11 C           1.6141    0.1070   -1.1176 C.ar    1  UNL1        0.1317
     12 O           0.5908   -0.4672   -1.8822 O.3     1  UNL1       -0.4811
     13 C          -0.3658   -1.3667   -1.3185 C.3     1  UNL1        0.1513
     14 C          -1.5080   -0.5545   -0.7042 C.ar    1  UNL1       -0.0012
     15 C          -2.0292    0.5180   -1.4552 C.ar    1  UNL1       -0.0098
     16 C          -3.0930    1.2900   -0.9773 C.ar    1  UNL1        0.1586
     17 O          -3.5624    2.3503   -1.7521 O.3     1  UNL1       -0.5033
     18 C          -3.6711    0.9882    0.2640 C.ar    1  UNL1        0.1582
     19 O          -4.7293    1.7553    0.7491 O.3     1  UNL1       -0.5033
     20 C          -3.1827   -0.0897    1.0098 C.ar    1  UNL1       -0.0162
     21 C          -2.1208   -0.8609    0.5300 C.ar    1  UNL1       -0.0513
     22 H          -0.7247   -3.9121   -0.5948 H       1  UNL1        0.2100
     23 H           1.1716   -2.8571   -1.0239 H       1  UNL1        0.0637
     24 H           0.4646   -1.2374    1.4954 H       1  UNL1        0.0342
     25 H           1.8715   -2.3066    1.1746 H       1  UNL1        0.0342
     26 H           2.7309   -0.8848    2.7254 H       1  UNL1        0.2921
     27 H           4.4061    1.8034    0.9760 H       1  UNL1        0.0691
     28 H           4.7897    3.3231   -0.9235 H       1  UNL1        0.2921
     29 H           2.1021    1.5498   -2.6369 H       1  UNL1        0.0691
     30 H          -0.8030   -1.9579   -2.1517 H       1  UNL1        0.0811
     31 H          -1.6071    0.7596   -2.4234 H       1  UNL1        0.0659
     32 H          -4.3304    2.9383   -1.4512 H       1  UNL1        0.2923
     33 H          -5.1638    1.5555    1.6425 H       1  UNL1        0.2923
     34 H          -3.6300   -0.3353    1.9648 H       1  UNL1        0.0655
     35 H          -1.7971   -1.6830    1.1447 H       1  UNL1        0.0623
@<TRIPOS>BOND
     1     1     2    1
     2     2     3    1
     3     3     4    1
     4     4     5   ar
     5     5     6    1
     6     5     7   ar
     7     7     8   ar
     8     8     9    1
     9     8    10   ar
    10    10    11   ar
    11    11    12    1
    12    12    13    1
    13    13    14    1
    14    14    15   ar
    15    15    16   ar
    16    16    17    1
    17    16    18   ar
    18    18    19    1
    19    18    20   ar
    20    20    21   ar
    21    13     2    1
    22    21    14   ar
    23    11     4   ar
    24     1    22    1
    25     2    23    1
    26     3    24    1
    27     3    25    1
    28     6    26    1
    29     7    27    1
    30     9    28    1
    31    10    29    1
    32    13    30    1
    33    15    31    1
    34    17    32    1
    35    19    33    1
    36    20    34    1
    37    21    35    1
