@<TRIPOS>MOLECULE
(+)-Gallocatechin
 36 38 0 0 0
SMALL
GASTEIGER

@<TRIPOS>ATOM
      1 O          -1.0700    0.3723   -3.1966 O.3     1  UNL1       -0.3875
      2 C          -0.1972    0.5490   -2.1068 C.3     1  UNL1        0.1004
      3 C          -0.8158    1.4965   -1.0613 C.3     1  UNL1        0.0092
      4 C          -1.8816    0.8194   -0.2337 C.ar    1  UNL1        0.0384
      5 C          -2.8485    1.5802    0.4507 C.ar    1  UNL1        0.1270
      6 O          -2.8514    2.9708    0.3431 O.3     1  UNL1       -0.5063
      7 C          -3.8093    0.9373    1.2441 C.ar    1  UNL1        0.0218
      8 C          -3.8046   -0.4542    1.3730 C.ar    1  UNL1        0.1238
      9 O          -4.7684   -1.0743    2.1651 O.3     1  UNL1       -0.5065
     10 C          -2.8315   -1.2112    0.7098 C.ar    1  UNL1        0.0221
     11 C          -1.8669   -0.5819   -0.0823 C.ar    1  UNL1        0.1317
     12 O          -0.8982   -1.3632   -0.7264 O.3     1  UNL1       -0.4811
     13 C           0.1864   -0.8145   -1.4836 C.3     1  UNL1        0.1514
     14 C           1.4481   -0.7097   -0.6455 C.ar    1  UNL1        0.0023
     15 C           2.6982   -0.8176   -1.2727 C.ar    1  UNL1       -0.0095
     16 C           3.8816   -0.6920   -0.5352 C.ar    1  UNL1        0.1623
     17 O           5.1177   -0.8093   -1.1693 O.3     1  UNL1       -0.5032
     18 C           3.8328   -0.4460    0.8436 C.ar    1  UNL1        0.2006
     19 O           5.0427   -0.3335    1.5332 O.3     1  UNL1       -0.5009
     20 C           2.5778   -0.3192    1.4843 C.ar    1  UNL1        0.1623
     21 O           2.4515   -0.0638    2.8515 O.3     1  UNL1       -0.5032
     22 C           1.4026   -0.4483    0.7350 C.ar    1  UNL1       -0.0095
     23 H          -1.8903   -0.0767   -2.8645 H       1  UNL1        0.2100
     24 H           0.7219    1.0328   -2.5049 H       1  UNL1        0.0637
     25 H          -1.2391    2.3790   -1.5885 H       1  UNL1        0.0342
     26 H          -0.0197    1.8632   -0.3784 H       1  UNL1        0.0342
     27 H          -3.5365    3.5396    0.8268 H       1  UNL1        0.2921
     28 H          -4.5585    1.5198    1.7656 H       1  UNL1        0.0691
     29 H          -4.7917   -2.0809    2.2802 H       1  UNL1        0.2921
     30 H          -2.8197   -2.2890    0.8132 H       1  UNL1        0.0691
     31 H           0.3909   -1.5252   -2.3145 H       1  UNL1        0.0811
     32 H           2.7541   -0.9977   -2.3395 H       1  UNL1        0.0659
     33 H           5.1894   -0.9863   -2.1646 H       1  UNL1        0.2923
     34 H           5.1149   -0.1633    2.5258 H       1  UNL1        0.2924
     35 H           3.2330    0.0532    3.4800 H       1  UNL1        0.2923
     36 H           0.4553   -0.3385    1.2436 H       1  UNL1        0.0659
@<TRIPOS>BOND
     1     1     2    1
     2     2     3    1
     3     3     4    1
     4     4     5   ar
     5     5     6    1
     6     5     7   ar
     7     7     8   ar
     8     8     9    1
     9     8    10   ar
    10    10    11   ar
    11    11    12    1
    12    12    13    1
    13    13    14    1
    14    14    15   ar
    15    15    16   ar
    16    16    17    1
    17    16    18   ar
    18    18    19    1
    19    18    20   ar
    20    20    21    1
    21    20    22   ar
    22    13     2    1
    23    22    14   ar
    24    11     4   ar
    25     1    23    1
    26     2    24    1
    27     3    25    1
    28     3    26    1
    29     6    27    1
    30     7    28    1
    31     9    29    1
    32    10    30    1
    33    13    31    1
    34    15    32    1
    35    17    33    1
    36    19    34    1
    37    21    35    1
    38    22    36    1
