@<TRIPOS>MOLECULE
(-)-Epigallocatechin
 36 38 0 0 0
SMALL
GASTEIGER

@<TRIPOS>ATOM
      1 O          -0.0754    0.9288   -1.9063 O.3     1  UNL1       -0.3875
      2 C           0.1769    1.5021   -0.6450 C.3     1  UNL1        0.1004
      3 C           1.6782    1.8063   -0.4683 C.3     1  UNL1        0.0092
      4 C           2.4885    0.5672   -0.1573 C.ar    1  UNL1        0.0384
      5 C           3.8830    0.5576   -0.3485 C.ar    1  UNL1        0.1270
      6 O           4.5296    1.6883   -0.8474 O.3     1  UNL1       -0.5063
      7 C           4.6229   -0.5920   -0.0359 C.ar    1  UNL1        0.0218
      8 C           3.9866   -1.7264    0.4757 C.ar    1  UNL1        0.1238
      9 O           4.7391   -2.8597    0.7758 O.3     1  UNL1       -0.5065
     10 C           2.6023   -1.7136    0.6845 C.ar    1  UNL1        0.0221
     11 C           1.8550   -0.5714    0.3836 C.ar    1  UNL1        0.1317
     12 O           0.4724   -0.5816    0.5991 O.3     1  UNL1       -0.4811
     13 C          -0.3228    0.6018    0.5061 C.3     1  UNL1        0.1514
     14 C          -1.7837    0.2500    0.3405 C.ar    1  UNL1        0.0023
     15 C          -2.7694    1.0785    0.8997 C.ar    1  UNL1       -0.0095
     16 C          -4.1287    0.7854    0.7256 C.ar    1  UNL1        0.1623
     17 O          -5.1035    1.6062    1.2902 O.3     1  UNL1       -0.5032
     18 C          -4.5143   -0.3355   -0.0207 C.ar    1  UNL1        0.2006
     19 O          -5.8723   -0.6126   -0.1816 O.3     1  UNL1       -0.5009
     20 C          -3.5355   -1.1616   -0.5986 C.ar    1  UNL1        0.1623
     21 O          -3.9152   -2.2735   -1.3491 O.3     1  UNL1       -0.5032
     22 C          -2.1774   -0.8638   -0.4210 C.ar    1  UNL1       -0.0095
     23 H           0.4269    0.0750   -1.9627 H       1  UNL1        0.2100
     24 H          -0.3736    2.4673   -0.5996 H       1  UNL1        0.0637
     25 H           2.0563    2.2922   -1.3940 H       1  UNL1        0.0342
     26 H           1.8072    2.5252    0.3697 H       1  UNL1        0.0342
     27 H           5.5322    1.7057   -0.9936 H       1  UNL1        0.2921
     28 H           5.6949   -0.6039   -0.1888 H       1  UNL1        0.0691
     29 H           4.3086   -3.6979    1.1487 H       1  UNL1        0.2921
     30 H           2.1060   -2.5887    1.0849 H       1  UNL1        0.0691
     31 H          -0.1944    1.1617    1.4599 H       1  UNL1        0.0811
     32 H          -2.4819    1.9534    1.4700 H       1  UNL1        0.0659
     33 H          -4.8576    2.4247    1.8348 H       1  UNL1        0.2923
     34 H          -6.2003   -1.4104   -0.7126 H       1  UNL1        0.2924
     35 H          -3.2295   -2.8847   -1.7771 H       1  UNL1        0.2923
     36 H          -1.4310   -1.5003   -0.8800 H       1  UNL1        0.0659
@<TRIPOS>BOND
     1     1     2    1
     2     2     3    1
     3     3     4    1
     4     4     5   ar
     5     5     6    1
     6     5     7   ar
     7     7     8   ar
     8     8     9    1
     9     8    10   ar
    10    10    11   ar
    11    11    12    1
    12    12    13    1
    13    13    14    1
    14    14    15   ar
    15    15    16   ar
    16    16    17    1
    17    16    18   ar
    18    18    19    1
    19    18    20   ar
    20    20    21    1
    21    20    22   ar
    22    13     2    1
    23    22    14   ar
    24    11     4   ar
    25     1    23    1
    26     2    24    1
    27     3    25    1
    28     3    26    1
    29     6    27    1
    30     7    28    1
    31     9    29    1
    32    10    30    1
    33    13    31    1
    34    15    32    1
    35    17    33    1
    36    19    34    1
    37    21    35    1
    38    22    36    1
