@<TRIPOS>MOLECULE
(-)-Epicatechin 3-O-gallate
 50 53 0 0 0
SMALL
GASTEIGER

@<TRIPOS>ATOM
      1 O          -2.4190    4.9405    2.4126 O.3     1  UNL1       -0.5065
      2 C          -2.1168    4.1317    1.3194 C.ar    1  UNL1        0.1238
      3 C          -1.5578    4.6807    0.1580 C.ar    1  UNL1        0.0218
      4 C          -1.2524    3.8607   -0.9379 C.ar    1  UNL1        0.1271
      5 O          -0.7079    4.4170   -2.0952 O.3     1  UNL1       -0.5063
      6 C          -1.4972    2.4766   -0.8657 C.ar    1  UNL1        0.0395
      7 C          -1.2007    1.5744   -2.0401 C.3     1  UNL1        0.0204
      8 C          -1.0307    0.1056   -1.6061 C.3     1  UNL1        0.1483
      9 O           0.1699   -0.0449   -0.8449 O.3     1  UNL1       -0.4534
     10 C           1.4504   -0.0845   -1.4091 C.2     1  UNL1        0.3398
     11 O           1.5940   -0.0188   -2.6612 O.2     1  UNL1       -0.2449
     12 C           2.6325   -0.2149   -0.5300 C.ar    1  UNL1        0.0661
     13 C           3.9294   -0.2509   -1.0706 C.ar    1  UNL1       -0.0023
     14 C           5.0466   -0.3755   -0.2335 C.ar    1  UNL1        0.1628
     15 O           6.3309   -0.4106   -0.7744 O.3     1  UNL1       -0.5032
     16 C           4.8773   -0.4655    1.1537 C.ar    1  UNL1        0.2006
     17 O           6.0015   -0.5891    1.9708 O.3     1  UNL1       -0.5009
     18 C           3.5852   -0.4305    1.7040 C.ar    1  UNL1        0.1628
     19 O           3.4123   -0.5201    3.0845 O.3     1  UNL1       -0.5032
     20 C           2.4709   -0.3057    0.8627 C.ar    1  UNL1       -0.0023
     21 C          -2.2404   -0.3165   -0.7421 C.3     1  UNL1        0.1622
     22 O          -2.3490    0.5634    0.3812 O.3     1  UNL1       -0.4800
     23 C          -2.0825    1.9346    0.2955 C.ar    1  UNL1        0.1318
     24 C          -2.3776    2.7604    1.3838 C.ar    1  UNL1        0.0221
     25 C          -2.2211   -1.7562   -0.2460 C.ar    1  UNL1       -0.0001
     26 C          -3.2030   -2.1538    0.6799 C.ar    1  UNL1       -0.0513
     27 C          -3.2493   -3.4661    1.1556 C.ar    1  UNL1       -0.0162
     28 C          -2.3230   -4.4125    0.7045 C.ar    1  UNL1        0.1582
     29 O          -2.3634   -5.7224    1.1789 O.3     1  UNL1       -0.5033
     30 C          -1.3519   -4.0427   -0.2322 C.ar    1  UNL1        0.1586
     31 O          -0.4355   -4.9906   -0.6849 O.3     1  UNL1       -0.5033
     32 C          -1.3056   -2.7255   -0.7121 C.ar    1  UNL1       -0.0097
     33 H          -2.2431    5.9384    2.3980 H       1  UNL1        0.2921
     34 H          -1.3631    5.7446    0.1059 H       1  UNL1        0.0691
     35 H          -0.5227    5.4104   -2.1705 H       1  UNL1        0.2921
     36 H          -0.2793    1.9109   -2.5612 H       1  UNL1        0.0353
     37 H          -2.0419    1.6486   -2.7629 H       1  UNL1        0.0353
     38 H          -0.9919   -0.5274   -2.5204 H       1  UNL1        0.0778
     39 H           4.0784   -0.1825   -2.1412 H       1  UNL1        0.0663
     40 H           6.4880   -0.3478   -1.7735 H       1  UNL1        0.2923
     41 H           5.9301   -0.6574    2.9789 H       1  UNL1        0.2924
     42 H           2.4916   -0.4975    3.5073 H       1  UNL1        0.2923
     43 H           1.4810   -0.2807    1.3016 H       1  UNL1        0.0663
     44 H          -3.1566   -0.1984   -1.3625 H       1  UNL1        0.0822
     45 H          -2.8139    2.3357    2.2793 H       1  UNL1        0.0691
     46 H          -3.9382   -1.4429    1.0371 H       1  UNL1        0.0623
     47 H          -4.0090   -3.7470    1.8739 H       1  UNL1        0.0655
     48 H          -3.0558   -6.0196    1.8566 H       1  UNL1        0.2923
     49 H           0.2809   -4.7556   -1.3619 H       1  UNL1        0.2923
     50 H          -0.5505   -2.4803   -1.4438 H       1  UNL1        0.0659
@<TRIPOS>BOND
     1     1     2    1
     2     2     3   ar
     3     3     4   ar
     4     4     5    1
     5     4     6   ar
     6     6     7    1
     7     7     8    1
     8     8     9    1
     9     9    10    1
    10    10    11    2
    11    10    12    1
    12    12    13   ar
    13    13    14   ar
    14    14    15    1
    15    14    16   ar
    16    16    17    1
    17    16    18   ar
    18    18    19    1
    19    18    20   ar
    20     8    21    1
    21    21    22    1
    22    22    23    1
    23    23    24   ar
    24    21    25    1
    25    25    26   ar
    26    26    27   ar
    27    27    28   ar
    28    28    29    1
    29    28    30   ar
    30    30    31    1
    31    30    32   ar
    32    24     2   ar
    33    32    25   ar
    34    23     6   ar
    35    20    12   ar
    36     1    33    1
    37     3    34    1
    38     5    35    1
    39     7    36    1
    40     7    37    1
    41     8    38    1
    42    13    39    1
    43    15    40    1
    44    17    41    1
    45    19    42    1
    46    20    43    1
    47    21    44    1
    48    24    45    1
    49    26    46    1
    50    27    47    1
    51    29    48    1
    52    31    49    1
    53    32    50    1
