@<TRIPOS>MOLECULE
(-)-Epigallocatechin 3-O-gallate
 51 54 0 0 0
SMALL
GASTEIGER

@<TRIPOS>ATOM
      1 O          -5.9447    3.9279    0.0046 O.3     1  UNL1       -0.5065
      2 C          -4.6133    3.5219    0.0607 C.ar    1  UNL1        0.1238
      3 C          -3.6780    4.2439    0.8130 C.ar    1  UNL1        0.0218
      4 C          -2.3381    3.8329    0.8619 C.ar    1  UNL1        0.1271
      5 O          -1.4152    4.5521    1.6211 O.3     1  UNL1       -0.5063
      6 C          -1.9276    2.6942    0.1439 C.ar    1  UNL1        0.0395
      7 C          -0.4898    2.2306    0.1974 C.3     1  UNL1        0.0204
      8 C          -0.1549    1.2676   -0.9557 C.3     1  UNL1        0.1483
      9 O           1.1541    0.7238   -0.7875 O.3     1  UNL1       -0.4534
     10 C           1.8609    0.0647   -1.8007 C.2     1  UNL1        0.3398
     11 O           1.4131    0.0510   -2.9805 O.2     1  UNL1       -0.2449
     12 C           3.1362   -0.6138   -1.4813 C.ar    1  UNL1        0.0661
     13 C           3.8823   -1.2503   -2.4866 C.ar    1  UNL1       -0.0023
     14 C           5.0856   -1.9009   -2.1889 C.ar    1  UNL1        0.1628
     15 O           5.7724   -2.5103   -3.2411 O.3     1  UNL1       -0.5032
     16 C           5.5580   -1.9200   -0.8551 C.ar    1  UNL1        0.2006
     17 O           6.7496   -2.5514   -0.4898 O.3     1  UNL1       -0.5009
     18 C           4.8139   -1.2864    0.1498 C.ar    1  UNL1        0.1628
     19 O           5.2777   -1.3065    1.4645 O.3     1  UNL1       -0.5032
     20 C           3.6126   -0.6379   -0.1620 C.ar    1  UNL1       -0.0023
     21 C          -1.2385    0.1659   -1.0934 C.3     1  UNL1        0.1624
     22 O          -2.5019    0.8058   -1.2921 O.3     1  UNL1       -0.4800
     23 C          -2.8801    1.9565   -0.5898 C.ar    1  UNL1        0.1318
     24 C          -4.2108    2.3813   -0.6387 C.ar    1  UNL1        0.0221
     25 C          -1.3719   -0.8548    0.0385 C.ar    1  UNL1        0.0034
     26 C          -0.4214   -1.0285    1.0672 C.ar    1  UNL1       -0.0095
     27 C          -0.5923   -2.0121    2.0470 C.ar    1  UNL1        0.1623
     28 O           0.3684   -2.1372    3.0507 O.3     1  UNL1       -0.5032
     29 C          -1.7133   -2.8553    2.0106 C.ar    1  UNL1        0.2006
     30 O          -1.8759   -3.8306    2.9955 O.3     1  UNL1       -0.5009
     31 C          -2.6563   -2.7114    0.9823 C.ar    1  UNL1        0.1623
     32 O          -3.7679   -3.5516    0.9325 O.3     1  UNL1       -0.5032
     33 C          -2.4777   -1.7250    0.0041 C.ar    1  UNL1       -0.0095
     34 H          -6.2693    4.7496    0.5009 H       1  UNL1        0.2921
     35 H          -3.9922    5.1236    1.3606 H       1  UNL1        0.0691
     36 H          -1.6861    5.3750    2.1468 H       1  UNL1        0.2921
     37 H           0.1899    3.1076    0.1268 H       1  UNL1        0.0353
     38 H          -0.3123    1.7489    1.1800 H       1  UNL1        0.0353
     39 H          -0.1636    1.8717   -1.8920 H       1  UNL1        0.0778
     40 H           3.5329   -1.2454   -3.5119 H       1  UNL1        0.0663
     41 H           6.6466   -3.0044   -3.1355 H       1  UNL1        0.2923
     42 H           7.3558   -3.0346   -1.1367 H       1  UNL1        0.2924
     43 H           4.7647   -0.8599    2.2157 H       1  UNL1        0.2923
     44 H           3.0541   -0.1566    0.6312 H       1  UNL1        0.0663
     45 H          -1.0149   -0.4135   -2.0141 H       1  UNL1        0.0822
     46 H          -4.9346    1.8186   -1.2149 H       1  UNL1        0.0691
     47 H           0.4597   -0.4155    1.1412 H       1  UNL1        0.0659
     48 H           0.2957   -2.8324    3.7837 H       1  UNL1        0.2923
     49 H          -2.6694   -4.4602    3.0063 H       1  UNL1        0.2924
     50 H          -4.4639   -3.4696    0.2005 H       1  UNL1        0.2923
     51 H          -3.2083   -1.6387   -0.7912 H       1  UNL1        0.0659
@<TRIPOS>BOND
     1     1     2    1
     2     2     3   ar
     3     3     4   ar
     4     4     5    1
     5     4     6   ar
     6     6     7    1
     7     7     8    1
     8     8     9    1
     9     9    10    1
    10    10    11    2
    11    10    12    1
    12    12    13   ar
    13    13    14   ar
    14    14    15    1
    15    14    16   ar
    16    16    17    1
    17    16    18   ar
    18    18    19    1
    19    18    20   ar
    20     8    21    1
    21    21    22    1
    22    22    23    1
    23    23    24   ar
    24    21    25    1
    25    25    26   ar
    26    26    27   ar
    27    27    28    1
    28    27    29   ar
    29    29    30    1
    30    29    31   ar
    31    31    32    1
    32    31    33   ar
    33    24     2   ar
    34    33    25   ar
    35    23     6   ar
    36    20    12   ar
    37     1    34    1
    38     3    35    1
    39     5    36    1
    40     7    37    1
    41     7    38    1
    42     8    39    1
    43    13    40    1
    44    15    41    1
    45    17    42    1
    46    19    43    1
    47    20    44    1
    48    21    45    1
    49    24    46    1
    50    26    47    1
    51    28    48    1
    52    30    49    1
    53    32    50    1
    54    33    51    1
