@<TRIPOS>MOLECULE
Theaflavin
 65 70 0 0 0
SMALL
GASTEIGER

@<TRIPOS>ATOM
      1 C          -1.9714   -0.4110    0.6692 C.3     1  UNL1        0.1518
      2 O          -3.1602   -0.5385    1.4621 O.3     1  UNL1       -0.4811
      3 C          -4.2428   -1.3615    1.1193 C.ar    1  UNL1        0.1317
      4 C          -5.3708   -1.3836    1.9446 C.ar    1  UNL1        0.0221
      5 C          -6.4730   -2.1806    1.6127 C.ar    1  UNL1        0.1238
      6 O          -7.6010   -2.2077    2.4297 O.3     1  UNL1       -0.5065
      7 C          -6.4460   -2.9539    0.4486 C.ar    1  UNL1        0.0218
      8 C          -5.3198   -2.9408   -0.3867 C.ar    1  UNL1        0.1270
      9 O          -5.3104   -3.7013   -1.5558 O.3     1  UNL1       -0.5063
     10 C          -4.2021   -2.1571   -0.0426 C.ar    1  UNL1        0.0384
     11 C          -2.9941   -2.0949   -0.9430 C.3     1  UNL1        0.0092
     12 C          -1.7359   -1.7010   -0.1584 C.3     1  UNL1        0.1004
     13 O          -0.6623   -1.5470   -1.0499 O.3     1  UNL1       -0.3875
     14 C          -2.0103    0.8564   -0.2114 C.ar    1  UNL1        0.0067
     15 C          -3.2637    1.2707   -0.6895 C.ar    1  UNL1       -0.0092
     16 C          -3.3844    2.2579   -1.6537 C.ar    1  UNL1        0.1594
     17 O          -4.6474    2.6150   -2.1274 O.3     1  UNL1       -0.5033
     18 C          -2.2461    2.8758   -2.1684 C.ar    1  UNL1        0.1698
     19 O          -2.3890    3.7809   -3.2265 O.3     1  UNL1       -0.5028
     20 C          -0.9561    2.5567   -1.6679 C.ar    1  UNL1        0.0728
     21 C           0.1323    3.3227   -2.1491 C.ar    1  UNL1        0.1751
     22 O          -0.0454    4.6860   -2.4152 O.3     1  UNL1       -0.5027
     23 C           1.3719    2.7885   -2.5022 C.ar    1  UNL1        0.2211
     24 O           2.0692    3.4372   -3.3298 O.2     1  UNL1       -0.2840
     25 C           1.9164    1.6077   -2.0114 C.ar    1  UNL1       -0.0045
     26 C           1.6429    1.0557   -0.7558 C.ar    1  UNL1       -0.0005
     27 C           0.4134    1.2129   -0.0927 C.ar    1  UNL1       -0.0465
     28 C          -0.8257    1.5218   -0.6898 C.ar    1  UNL1       -0.0034
     29 C           2.7508    0.1668   -0.1749 C.3     1  UNL1        0.1513
     30 O           4.0072    0.8451   -0.2792 O.3     1  UNL1       -0.4811
     31 C           5.1627    0.3915    0.3670 C.ar    1  UNL1        0.1317
     32 C           6.3953    0.9741    0.0592 C.ar    1  UNL1        0.0221
     33 C           7.5624    0.5308    0.6933 C.ar    1  UNL1        0.1238
     34 O           8.7958    1.1031    0.3904 O.3     1  UNL1       -0.5065
     35 C           7.4928   -0.4980    1.6375 C.ar    1  UNL1        0.0218
     36 C           6.2603   -1.0845    1.9597 C.ar    1  UNL1        0.1270
     37 O           6.2026   -2.1183    2.8942 O.3     1  UNL1       -0.5063
     38 C           5.0837   -0.6270    1.3375 C.ar    1  UNL1        0.0384
     39 C           3.7463   -1.2565    1.6518 C.3     1  UNL1        0.0092
     40 C           2.5713   -0.3315    1.2801 C.3     1  UNL1        0.1004
     41 O           2.5389    0.7658    2.1586 O.3     1  UNL1       -0.3875
     42 H          -1.1603   -0.3544    1.4124 H       1  UNL1        0.0811
     43 H          -5.3915   -0.7752    2.8400 H       1  UNL1        0.0691
     44 H          -7.6528   -1.6578    3.2793 H       1  UNL1        0.2921
     45 H          -7.3042   -3.5618    0.1909 H       1  UNL1        0.0691
     46 H          -6.1033   -4.2721   -1.8245 H       1  UNL1        0.2921
     47 H          -3.1849   -1.3617   -1.7557 H       1  UNL1        0.0342
     48 H          -2.8163   -3.0868   -1.4126 H       1  UNL1        0.0342
     49 H          -1.5141   -2.5349    0.5508 H       1  UNL1        0.0637
     50 H           0.1683   -1.6821   -0.5242 H       1  UNL1        0.2100
     51 H          -4.1722    0.7960   -0.3521 H       1  UNL1        0.0659
     52 H          -5.4925    2.1773   -1.7788 H       1  UNL1        0.2923
     53 H          -3.2883    4.0217   -3.6256 H       1  UNL1        0.2923
     54 H          -0.8234    5.2173   -2.0421 H       1  UNL1        0.2923
     55 H           2.8314    1.2830   -2.4977 H       1  UNL1        0.0661
     56 H           0.3823    0.8852    0.9231 H       1  UNL1        0.0628
     57 H           2.7981   -0.7371   -0.8235 H       1  UNL1        0.0811
     58 H           6.4449    1.7665   -0.6771 H       1  UNL1        0.0691
     59 H           8.8805    1.8496   -0.2897 H       1  UNL1        0.2921
     60 H           8.3989   -0.8430    2.1197 H       1  UNL1        0.0691
     61 H           7.0359   -2.4645    3.3551 H       1  UNL1        0.2921
     62 H           3.6609   -2.2069    1.0815 H       1  UNL1        0.0342
     63 H           3.6817   -1.5040    2.7338 H       1  UNL1        0.0342
     64 H           1.6318   -0.9262    1.3595 H       1  UNL1        0.0637
     65 H           2.1307    0.4432    3.0042 H       1  UNL1        0.2100
@<TRIPOS>BOND
     1     1     2    1
     2     2     3    1
     3     3     4   ar
     4     4     5   ar
     5     5     6    1
     6     5     7   ar
     7     7     8   ar
     8     8     9    1
     9     8    10   ar
    10    10    11    1
    11    11    12    1
    12    12    13    1
    13     1    14    1
    14    14    15   ar
    15    15    16   ar
    16    16    17    1
    17    16    18   ar
    18    18    19    1
    19    18    20   ar
    20    20    21   ar
    21    21    22    1
    22    21    23   ar
    23    23    24    2
    24    23    25   ar
    25    25    26   ar
    26    26    27   ar
    27    27    28   ar
    28    26    29    1
    29    29    30    1
    30    30    31    1
    31    31    32   ar
    32    32    33   ar
    33    33    34    1
    34    33    35   ar
    35    35    36   ar
    36    36    37    1
    37    36    38   ar
    38    38    39    1
    39    39    40    1
    40    40    41    1
    41    12     1    1
    42    28    14   ar
    43    40    29    1
    44    10     3   ar
    45    28    20   ar
    46    38    31   ar
    47     1    42    1
    48     4    43    1
    49     6    44    1
    50     7    45    1
    51     9    46    1
    52    11    47    1
    53    11    48    1
    54    12    49    1
    55    13    50    1
    56    15    51    1
    57    17    52    1
    58    19    53    1
    59    22    54    1
    60    25    55    1
    61    27    56    1
    62    29    57    1
    63    32    58    1
    64    34    59    1
    65    35    60    1
    66    37    61    1
    67    39    62    1
    68    39    63    1
    69    40    64    1
    70    41    65    1
