@<TRIPOS>MOLECULE
Theaflavin 3-O-gallate
 80 86 0 0 0
SMALL
GASTEIGER

@<TRIPOS>ATOM
      1 C          -1.1444   -1.5614   -0.6936 C.3     1  UNL1        0.1628
      2 O          -0.9066   -0.4861    0.2186 O.3     1  UNL1       -0.4800
      3 C          -1.7348   -0.2610    1.3267 C.ar    1  UNL1        0.1318
      4 C          -1.3445    0.6664    2.2963 C.ar    1  UNL1        0.0221
      5 C          -2.1376    0.8856    3.4234 C.ar    1  UNL1        0.1238
      6 O          -1.7295    1.8120    4.3805 O.3     1  UNL1       -0.5065
      7 C          -3.3291    0.1696    3.5857 C.ar    1  UNL1        0.0218
      8 C          -3.7425   -0.7556    2.6204 C.ar    1  UNL1        0.1271
      9 O          -4.9218   -1.4666    2.8537 O.3     1  UNL1       -0.5063
     10 C          -2.9625   -0.9498    1.4560 C.ar    1  UNL1        0.0395
     11 C          -3.3959   -1.9043    0.3607 C.3     1  UNL1        0.0204
     12 C          -2.6641   -1.6289   -0.9690 C.3     1  UNL1        0.1483
     13 O          -3.1076   -0.3782   -1.5036 O.3     1  UNL1       -0.4534
     14 C          -4.3288   -0.2017   -2.1650 C.2     1  UNL1        0.3398
     15 O          -5.0972   -1.1854   -2.3514 O.2     1  UNL1       -0.2449
     16 C          -4.7067    1.1418   -2.6545 C.ar    1  UNL1        0.0661
     17 C          -5.9270    1.3479   -3.3173 C.ar    1  UNL1       -0.0023
     18 C          -6.2888    2.6170   -3.7835 C.ar    1  UNL1        0.1628
     19 O          -7.5189    2.7423   -4.4331 O.3     1  UNL1       -0.5032
     20 C          -5.4130    3.7115   -3.5854 C.ar    1  UNL1        0.2006
     21 O          -5.7194    5.0010   -4.0283 O.3     1  UNL1       -0.5009
     22 C          -4.1901    3.5049   -2.9213 C.ar    1  UNL1        0.1628
     23 O          -3.3002    4.5578   -2.7070 O.3     1  UNL1       -0.5032
     24 C          -3.8445    2.2310   -2.4621 C.ar    1  UNL1       -0.0023
     25 C          -0.2043   -1.4366   -1.9091 C.ar    1  UNL1        0.0077
     26 C          -0.7564   -1.2503   -3.1902 C.ar    1  UNL1       -0.0091
     27 C           0.0426   -1.0671   -4.3062 C.ar    1  UNL1        0.1594
     28 O          -0.5425   -0.8099   -5.5467 O.3     1  UNL1       -0.5033
     29 C           1.4273   -1.1469   -4.1928 C.ar    1  UNL1        0.1698
     30 O           2.2176   -0.8944   -5.3207 O.3     1  UNL1       -0.5028
     31 C           2.0397   -1.4460   -2.9493 C.ar    1  UNL1        0.0728
     32 C           3.4081   -1.8041   -2.9892 C.ar    1  UNL1        0.1751
     33 O           3.8828   -2.5514   -4.0757 O.3     1  UNL1       -0.5027
     34 C           4.3760   -1.3911   -2.0757 C.ar    1  UNL1        0.2211
     35 O           5.5826   -1.4667   -2.4377 O.2     1  UNL1       -0.2840
     36 C           4.1391   -0.8932   -0.8041 C.ar    1  UNL1       -0.0045
     37 C           3.0258   -1.1609   -0.0051 C.ar    1  UNL1       -0.0005
     38 C           1.7798   -1.6113   -0.4684 C.ar    1  UNL1       -0.0465
     39 C           1.2331   -1.4883   -1.7682 C.ar    1  UNL1       -0.0034
     40 C           3.1501   -0.8900    1.4909 C.3     1  UNL1        0.1513
     41 O           4.4492   -1.2345    1.9771 O.3     1  UNL1       -0.4811
     42 C           4.9270   -0.7702    3.2081 C.ar    1  UNL1        0.1317
     43 C           6.1084   -1.3053    3.7292 C.ar    1  UNL1        0.0221
     44 C           6.6034   -0.8568    4.9597 C.ar    1  UNL1        0.1238
     45 O           7.7782   -1.3875    5.4877 O.3     1  UNL1       -0.5065
     46 C           5.9132    0.1304    5.6688 C.ar    1  UNL1        0.0218
     47 C           4.7313    0.6812    5.1527 C.ar    1  UNL1        0.1270
     48 O           4.0447    1.6582    5.8735 O.3     1  UNL1       -0.5063
     49 C           4.2405    0.2460    3.9074 C.ar    1  UNL1        0.0384
     50 C           2.9573    0.8187    3.3442 C.3     1  UNL1        0.0092
     51 C           2.8237    0.5812    1.8265 C.3     1  UNL1        0.1004
     52 O           3.6315    1.4785    1.1019 O.3     1  UNL1       -0.3875
     53 H          -0.8927   -2.5226   -0.1924 H       1  UNL1        0.0822
     54 H          -0.4230    1.2184    2.1766 H       1  UNL1        0.0691
     55 H          -2.2806    1.9930    5.2114 H       1  UNL1        0.2921
     56 H          -3.9351    0.3265    4.4694 H       1  UNL1        0.0691
     57 H          -5.2529   -2.2066    2.2490 H       1  UNL1        0.2921
     58 H          -4.4874   -1.8127    0.1824 H       1  UNL1        0.0353
     59 H          -3.1882   -2.9452    0.6906 H       1  UNL1        0.0353
     60 H          -2.8785   -2.4576   -1.6806 H       1  UNL1        0.0778
     61 H          -6.6082    0.5208   -3.4768 H       1  UNL1        0.0663
     62 H          -7.8770    3.6088   -4.8075 H       1  UNL1        0.2923
     63 H          -6.5698    5.2477   -4.5132 H       1  UNL1        0.2924
     64 H          -3.4946    5.5025   -3.0164 H       1  UNL1        0.2923
     65 H          -2.8968    2.0990   -1.9542 H       1  UNL1        0.0663
     66 H          -1.8204   -1.2240   -3.3540 H       1  UNL1        0.0659
     67 H          -1.5475   -0.7449   -5.6611 H       1  UNL1        0.2923
     68 H           1.8246   -0.6652   -6.2257 H       1  UNL1        0.2923
     69 H           3.2670   -3.0436   -4.7126 H       1  UNL1        0.2923
     70 H           5.0075   -0.4750   -0.3063 H       1  UNL1        0.0661
     71 H           1.1111   -1.8825    0.3292 H       1  UNL1        0.0628
     72 H           2.4286   -1.5280    2.0499 H       1  UNL1        0.0811
     73 H           6.6371   -2.0735    3.1791 H       1  UNL1        0.0691
     74 H           8.3018   -2.1047    4.9995 H       1  UNL1        0.2921
     75 H           6.2960    0.4687    6.6235 H       1  UNL1        0.0691
     76 H           4.3778    1.9877    6.7720 H       1  UNL1        0.2921
     77 H           2.9025    1.9113    3.5420 H       1  UNL1        0.0342
     78 H           2.1015    0.3361    3.8645 H       1  UNL1        0.0342
     79 H           1.7705    0.7771    1.5382 H       1  UNL1        0.0637
     80 H           4.5723    1.3475    1.3881 H       1  UNL1        0.2100
@<TRIPOS>BOND
     1     1     2    1
     2     2     3    1
     3     3     4   ar
     4     4     5   ar
     5     5     6    1
     6     5     7   ar
     7     7     8   ar
     8     8     9    1
     9     8    10   ar
    10    10    11    1
    11    11    12    1
    12    12    13    1
    13    13    14    1
    14    14    15    2
    15    14    16    1
    16    16    17   ar
    17    17    18   ar
    18    18    19    1
    19    18    20   ar
    20    20    21    1
    21    20    22   ar
    22    22    23    1
    23    22    24   ar
    24     1    25    1
    25    25    26   ar
    26    26    27   ar
    27    27    28    1
    28    27    29   ar
    29    29    30    1
    30    29    31   ar
    31    31    32   ar
    32    32    33    1
    33    32    34   ar
    34    34    35    2
    35    34    36   ar
    36    36    37   ar
    37    37    38   ar
    38    38    39   ar
    39    37    40    1
    40    40    41    1
    41    41    42    1
    42    42    43   ar
    43    43    44   ar
    44    44    45    1
    45    44    46   ar
    46    46    47   ar
    47    47    48    1
    48    47    49   ar
    49    49    50    1
    50    50    51    1
    51    51    52    1
    52    12     1    1
    53    24    16   ar
    54    39    25   ar
    55    51    40    1
    56    10     3   ar
    57    39    31   ar
    58    49    42   ar
    59     1    53    1
    60     4    54    1
    61     6    55    1
    62     7    56    1
    63     9    57    1
    64    11    58    1
    65    11    59    1
    66    12    60    1
    67    17    61    1
    68    19    62    1
    69    21    63    1
    70    23    64    1
    71    24    65    1
    72    26    66    1
    73    28    67    1
    74    30    68    1
    75    33    69    1
    76    36    70    1
    77    38    71    1
    78    40    72    1
    79    43    73    1
    80    45    74    1
    81    46    75    1
    82    48    76    1
    83    50    77    1
    84    50    78    1
    85    51    79    1
    86    52    80    1
