@<TRIPOS>MOLECULE
Theaflavin 3'-O-gallate
 80 86 0 0 0
SMALL
GASTEIGER

@<TRIPOS>ATOM
      1 O           3.6861    2.0141    1.2782 O.3     1  UNL1       -0.3875
      2 C           4.5549    0.9961    0.8408 C.3     1  UNL1        0.1004
      3 C           5.5087    1.5170   -0.2559 C.3     1  UNL1        0.0092
      4 C           4.8562    1.5989   -1.6228 C.ar    1  UNL1        0.0384
      5 C           5.4339    2.3548   -2.6708 C.ar    1  UNL1        0.1270
      6 O           6.6453    3.0331   -2.5190 O.3     1  UNL1       -0.5063
      7 C           4.7889    2.4287   -3.9111 C.ar    1  UNL1        0.0218
      8 C           3.5930    1.7373   -4.1360 C.ar    1  UNL1        0.1238
      9 O           2.9498    1.8125   -5.3694 O.3     1  UNL1       -0.5065
     10 C           3.0411    0.9580   -3.1186 C.ar    1  UNL1        0.0221
     11 C           3.6719    0.8717   -1.8752 C.ar    1  UNL1        0.1317
     12 O           3.1003    0.0722   -0.8818 O.3     1  UNL1       -0.4811
     13 C           3.7800   -0.2378    0.3341 C.3     1  UNL1        0.1513
     14 C           2.8073   -0.7676    1.3798 C.ar    1  UNL1       -0.0007
     15 C           1.5135   -0.2404    1.4099 C.ar    1  UNL1       -0.0465
     16 C           0.3551   -0.9031    1.8599 C.ar    1  UNL1       -0.0032
     17 C           0.3191   -1.6422    3.0854 C.ar    1  UNL1        0.0779
     18 C          -0.9299   -2.1710    3.5268 C.ar    1  UNL1        0.1699
     19 O          -0.9615   -3.0418    4.6244 O.3     1  UNL1       -0.5028
     20 C          -2.1162   -1.8635    2.8463 C.ar    1  UNL1        0.1594
     21 O          -3.3753   -2.2382    3.3237 O.3     1  UNL1       -0.5033
     22 C          -2.0679   -1.1616    1.6571 C.ar    1  UNL1       -0.0091
     23 C          -0.8563   -0.7256    1.1003 C.ar    1  UNL1        0.0077
     24 C          -0.8279   -0.0742   -0.3050 C.3     1  UNL1        0.1628
     25 O           0.2204   -0.6716   -1.0709 O.3     1  UNL1       -0.4800
     26 C           0.0369   -1.8477   -1.8058 C.ar    1  UNL1        0.1318
     27 C          -1.2623   -2.3248   -2.0861 C.ar    1  UNL1        0.0395
     28 C          -2.4681   -1.5427   -1.6082 C.3     1  UNL1        0.0204
     29 C          -2.1080   -0.1060   -1.1829 C.3     1  UNL1        0.1483
     30 O          -3.2214    0.5287   -0.5536 O.3     1  UNL1       -0.4534
     31 C          -3.3199    1.9105   -0.3496 C.2     1  UNL1        0.3398
     32 O          -2.4720    2.6899   -0.8657 O.2     1  UNL1       -0.2449
     33 C          -4.4248    2.4518    0.4717 C.ar    1  UNL1        0.0661
     34 C          -5.3378    1.5833    1.0881 C.ar    1  UNL1       -0.0023
     35 C          -6.3808    2.0877    1.8747 C.ar    1  UNL1        0.1628
     36 O          -7.2819    1.2160    2.4848 O.3     1  UNL1       -0.5032
     37 C          -6.5267    3.4701    2.0555 C.ar    1  UNL1        0.2006
     38 O          -7.5849    3.9199    2.8491 O.3     1  UNL1       -0.5009
     39 C          -5.6104    4.3540    1.4378 C.ar    1  UNL1        0.1628
     40 O          -5.6927    5.7416    1.5733 O.3     1  UNL1       -0.5032
     41 C          -4.5714    3.8365    0.6552 C.ar    1  UNL1       -0.0023
     42 C          -1.4107   -3.5450   -2.7868 C.ar    1  UNL1        0.1271
     43 O          -2.6633   -4.1083   -3.0399 O.3     1  UNL1       -0.5063
     44 C          -0.2764   -4.2268   -3.2426 C.ar    1  UNL1        0.0218
     45 C           1.0059   -3.7248   -2.9921 C.ar    1  UNL1        0.1238
     46 O           2.1351   -4.4011   -3.4482 O.3     1  UNL1       -0.5065
     47 C           1.1579   -2.5389   -2.2728 C.ar    1  UNL1        0.0221
     48 C           1.4388   -1.8194    3.9447 C.ar    1  UNL1        0.2313
     49 O           1.2249   -1.9355    5.1848 O.2     1  UNL1       -0.2832
     50 C           2.7716   -1.9810    3.5485 C.ar    1  UNL1        0.1647
     51 O           3.6460   -2.5072    4.5064 O.3     1  UNL1       -0.5032
     52 C           3.3086   -1.6847    2.2994 C.ar    1  UNL1       -0.0096
     53 H           3.1755    2.3412    0.4927 H       1  UNL1        0.2100
     54 H           5.1740    0.6879    1.7117 H       1  UNL1        0.0637
     55 H           6.3857    0.8379   -0.3282 H       1  UNL1        0.0342
     56 H           5.8713    2.5191    0.0577 H       1  UNL1        0.0342
     57 H           7.2131    2.9762   -1.6839 H       1  UNL1        0.2921
     58 H           5.2268    3.0193   -4.7063 H       1  UNL1        0.0691
     59 H           3.3253    2.3675   -6.1296 H       1  UNL1        0.2921
     60 H           2.1223    0.4126   -3.2952 H       1  UNL1        0.0691
     61 H           4.5238   -1.0303    0.0905 H       1  UNL1        0.0811
     62 H           1.3722    0.6217    0.7769 H       1  UNL1        0.0628
     63 H          -1.7701   -3.5803    4.9011 H       1  UNL1        0.2923
     64 H          -3.5405   -2.6182    4.2451 H       1  UNL1        0.2923
     65 H          -3.0139   -0.9828    1.1819 H       1  UNL1        0.0659
     66 H          -0.5789    0.9974   -0.1612 H       1  UNL1        0.0822
     67 H          -2.9433   -2.1000   -0.7767 H       1  UNL1        0.0353
     68 H          -3.2111   -1.4683   -2.4312 H       1  UNL1        0.0353
     69 H          -1.8808    0.4513   -2.1211 H       1  UNL1        0.0778
     70 H          -5.2437    0.5115    0.9646 H       1  UNL1        0.0663
     71 H          -7.2054    0.2113    2.3766 H       1  UNL1        0.2923
     72 H          -7.7754    4.8928    3.0404 H       1  UNL1        0.2924
     73 H          -6.4011    6.2164    2.1137 H       1  UNL1        0.2923
     74 H          -3.8772    4.5256    0.1898 H       1  UNL1        0.0663
     75 H          -3.5290   -3.7113   -2.6988 H       1  UNL1        0.2921
     76 H          -0.3942   -5.1548   -3.7881 H       1  UNL1        0.0691
     77 H           2.0596   -5.2656   -3.9714 H       1  UNL1        0.2921
     78 H           2.1504   -2.1598   -2.0672 H       1  UNL1        0.0691
     79 H           4.6313   -2.6590    4.3223 H       1  UNL1        0.2923
     80 H           4.3304   -2.0116    2.1433 H       1  UNL1        0.0659
@<TRIPOS>BOND
     1     1     2    1
     2     2     3    1
     3     3     4    1
     4     4     5   ar
     5     5     6    1
     6     5     7   ar
     7     7     8   ar
     8     8     9    1
     9     8    10   ar
    10    10    11   ar
    11    11    12    1
    12    12    13    1
    13    13    14    1
    14    14    15   ar
    15    15    16   ar
    16    16    17   ar
    17    17    18   ar
    18    18    19    1
    19    18    20   ar
    20    20    21    1
    21    20    22   ar
    22    22    23   ar
    23    23    24    1
    24    24    25    1
    25    25    26    1
    26    26    27   ar
    27    27    28    1
    28    28    29    1
    29    29    30    1
    30    30    31    1
    31    31    32    2
    32    31    33    1
    33    33    34   ar
    34    34    35   ar
    35    35    36    1
    36    35    37   ar
    37    37    38    1
    38    37    39   ar
    39    39    40    1
    40    39    41   ar
    41    27    42   ar
    42    42    43    1
    43    42    44   ar
    44    44    45   ar
    45    45    46    1
    46    45    47   ar
    47    17    48   ar
    48    48    49    2
    49    48    50   ar
    50    50    51    1
    51    50    52   ar
    52    13     2    1
    53    52    14   ar
    54    11     4   ar
    55    23    16   ar
    56    29    24    1
    57    41    33   ar
    58    47    26   ar
    59     1    53    1
    60     2    54    1
    61     3    55    1
    62     3    56    1
    63     6    57    1
    64     7    58    1
    65     9    59    1
    66    10    60    1
    67    13    61    1
    68    15    62    1
    69    19    63    1
    70    21    64    1
    71    22    65    1
    72    24    66    1
    73    28    67    1
    74    28    68    1
    75    29    69    1
    76    34    70    1
    77    36    71    1
    78    38    72    1
    79    40    73    1
    80    41    74    1
    81    43    75    1
    82    44    76    1
    83    46    77    1
    84    47    78    1
    85    51    79    1
    86    52    80    1
