@<TRIPOS>MOLECULE
Peonidin
 35 37 0 0 0
SMALL
GASTEIGER

@<TRIPOS>ATOM
      1 C           4.2371    2.0716    0.3951 C.3     1  UNL1        0.0790
      2 O           4.5065    0.7528   -0.0695 O.3     1  UNL1       -0.4914
      3 C           3.5228   -0.2039   -0.3672 C.ar    1  UNL1        0.1621
      4 C           3.9260   -1.4741   -0.8174 C.ar    1  UNL1        0.1585
      5 O           5.2760   -1.7890   -0.9720 O.3     1  UNL1       -0.5033
      6 C           2.9682   -2.4479   -1.1137 C.ar    1  UNL1       -0.0157
      7 C           1.6079   -2.1689   -0.9730 C.ar    1  UNL1       -0.0418
      8 C           1.1845   -0.9004   -0.5445 C.ar    1  UNL1        0.0865
      9 C           2.1475    0.0714   -0.2269 C.ar    1  UNL1       -0.0001
     10 C          -0.2520   -0.5886   -0.3639 C.ar    1  UNL1        0.4043
     11 O          -0.6146    0.1082    0.7099 O.2     1  UNL1       -0.1997
     12 C          -1.8745    0.4366    0.9757 C.ar    1  UNL1        0.3708
     13 C          -2.1569    1.1690    2.1317 C.ar    1  UNL1        0.0847
     14 C          -3.4738    1.5253    2.4369 C.ar    1  UNL1        0.1293
     15 O          -3.7627    2.2557    3.5876 O.3     1  UNL1       -0.5063
     16 C          -4.5122    1.1467    1.5832 C.ar    1  UNL1        0.0225
     17 C          -4.2556    0.4122    0.4187 C.ar    1  UNL1        0.1366
     18 O          -5.3500    0.0699   -0.3806 O.3     1  UNL1       -0.5057
     19 C          -2.9202    0.0504    0.1029 C.ar    1  UNL1        0.1241
     20 C          -2.5678   -0.6728   -1.0483 C.ar    1  UNL1        0.0090
     21 C          -1.2283   -0.9887   -1.2951 C.ar    1  UNL1        0.2238
     22 O          -0.8722   -1.6635   -2.4629 O.3     1  UNL1       -0.4995
     23 H           3.6385    2.6269   -0.3576 H       1  UNL1        0.0660
     24 H           5.1975    2.6049    0.5482 H       1  UNL1        0.0660
     25 H           3.6944    2.0321    1.3632 H       1  UNL1        0.0660
     26 H           6.0123   -1.1231   -0.7710 H       1  UNL1        0.2923
     27 H           3.2810   -3.4295   -1.4467 H       1  UNL1        0.0655
     28 H           0.8908   -2.9540   -1.1753 H       1  UNL1        0.0628
     29 H           1.8183    1.0430    0.1170 H       1  UNL1        0.0664
     30 H          -1.3504    1.4608    2.7933 H       1  UNL1        0.0749
     31 H          -3.0330    2.5459    4.2281 H       1  UNL1        0.2921
     32 H          -5.5301    1.4251    1.8268 H       1  UNL1        0.0691
     33 H          -5.2878   -0.4664   -1.2337 H       1  UNL1        0.2922
     34 H          -3.3024   -0.9885   -1.7720 H       1  UNL1        0.0667
     35 H          -1.5648   -1.9491   -3.1452 H       1  UNL1        0.2925
@<TRIPOS>UNITY_ATOM_ATTR
11 1
charge 1
@<TRIPOS>BOND
     1     1     2    1
     2     2     3    1
     3     3     4   ar
     4     4     5    1
     5     4     6   ar
     6     6     7   ar
     7     7     8   ar
     8     8     9   ar
     9     8    10    1
    10    10    11   ar
    11    11    12   ar
    12    12    13   ar
    13    13    14   ar
    14    14    15    1
    15    14    16   ar
    16    16    17   ar
    17    17    18    1
    18    17    19   ar
    19    19    20   ar
    20    20    21   ar
    21    21    22    1
    22     9     3   ar
    23    21    10   ar
    24    19    12   ar
    25     1    23    1
    26     1    24    1
    27     1    25    1
    28     5    26    1
    29     6    27    1
    30     7    28    1
    31     9    29    1
    32    13    30    1
    33    15    31    1
    34    16    32    1
    35    18    33    1
    36    20    34    1
    37    22    35    1
