@<TRIPOS>MOLECULE
Theaflavin 3,3'-O-digallate
 95 102 0 0 0
SMALL
GASTEIGER

@<TRIPOS>ATOM
      1 C           0.5941   -0.0183   -0.2722 C.3     1  UNL1        0.1518
      2 O           1.8599   -0.4479    0.2314 O.3     1  UNL1       -0.4811
      3 C           3.0095   -0.4719   -0.5661 C.ar    1  UNL1        0.1317
      4 C           4.2490   -0.6887    0.0397 C.ar    1  UNL1        0.0230
      5 C           5.4190   -0.7195   -0.7222 C.ar    1  UNL1        0.1389
      6 O           6.6387   -0.9347   -0.0635 O.3     1  UNL1       -0.4221
      7 C           7.7754   -1.5281   -0.6315 C.2     1  UNL1        0.3447
      8 O           7.6789   -2.2024   -1.6938 O.2     1  UNL1       -0.2445
      9 C           9.0825   -1.4099    0.0529 C.ar    1  UNL1        0.0665
     10 C          10.2306   -2.0166   -0.4829 C.ar    1  UNL1       -0.0023
     11 C          11.4703   -1.9074    0.1583 C.ar    1  UNL1        0.1628
     12 O          12.5663   -2.5380   -0.4346 O.3     1  UNL1       -0.5032
     13 C          11.5706   -1.1747    1.3646 C.ar    1  UNL1        0.2006
     14 O          12.7761   -1.0270    2.0552 O.3     1  UNL1       -0.5009
     15 C          10.4264   -0.5676    1.9005 C.ar    1  UNL1        0.1628
     16 O          10.5248    0.1549    3.0888 O.3     1  UNL1       -0.5032
     17 C           9.1922   -0.6846    1.2488 C.ar    1  UNL1       -0.0023
     18 C           5.3438   -0.4867   -2.1057 C.ar    1  UNL1        0.0228
     19 C           4.1099   -0.2673   -2.7290 C.ar    1  UNL1        0.1271
     20 O           4.1047   -0.0062   -4.1012 O.3     1  UNL1       -0.5063
     21 C           2.9204   -0.3006   -1.9649 C.ar    1  UNL1        0.0384
     22 C           1.5634   -0.1009   -2.6111 C.3     1  UNL1        0.0092
     23 C           0.3948   -0.5474   -1.7083 C.3     1  UNL1        0.1004
     24 O           0.2468   -1.9478   -1.7334 O.3     1  UNL1       -0.3875
     25 C          -0.5500   -0.4790    0.6398 C.ar    1  UNL1        0.0067
     26 C          -0.3893   -1.7148    1.2787 C.ar    1  UNL1       -0.0091
     27 C          -1.4444   -2.3333    1.9255 C.ar    1  UNL1        0.1603
     28 O          -1.2347   -3.5374    2.5987 O.3     1  UNL1       -0.5033
     29 C          -2.7189   -1.7620    1.8948 C.ar    1  UNL1        0.1844
     30 O          -3.7917   -2.4766    2.4517 O.3     1  UNL1       -0.4179
     31 C          -4.1199   -3.7970    2.1154 C.2     1  UNL1        0.3448
     32 O          -3.5494   -4.3639    1.1424 O.2     1  UNL1       -0.2445
     33 C          -5.1666   -4.5098    2.8803 C.ar    1  UNL1        0.0665
     34 C          -5.5077   -5.8366    2.5655 C.ar    1  UNL1       -0.0023
     35 C          -6.5006   -6.5084    3.2918 C.ar    1  UNL1        0.1628
     36 O          -6.8350   -7.8242    2.9758 O.3     1  UNL1       -0.5032
     37 C          -7.1628   -5.8589    4.3409 C.ar    1  UNL1        0.2006
     38 O          -8.1485   -6.5438    5.0522 O.3     1  UNL1       -0.5009
     39 C          -6.8295   -4.5329    4.6636 C.ar    1  UNL1        0.1628
     40 O          -7.4869   -3.8827    5.7071 O.3     1  UNL1       -0.5032
     41 C          -5.8354   -3.8654    3.9346 C.ar    1  UNL1       -0.0023
     42 C          -2.9340   -0.4824    1.3015 C.ar    1  UNL1        0.0737
     43 C          -4.2484    0.0512    1.3671 C.ar    1  UNL1        0.1751
     44 O          -5.0563   -0.3278    2.4484 O.3     1  UNL1       -0.5027
     45 C          -4.8497    0.8352    0.3698 C.ar    1  UNL1        0.2211
     46 O          -6.1089    0.8135    0.2922 O.2     1  UNL1       -0.2840
     47 C          -4.1940    1.6613   -0.5337 C.ar    1  UNL1       -0.0045
     48 C          -2.9134    2.1850   -0.3714 C.ar    1  UNL1       -0.0005
     49 C          -1.8740    1.5353    0.2980 C.ar    1  UNL1       -0.0465
     50 C          -1.8213    0.1857    0.6948 C.ar    1  UNL1       -0.0034
     51 C          -2.5910    3.4998   -1.0689 C.3     1  UNL1        0.1513
     52 O          -3.6885    4.4040   -0.9327 O.3     1  UNL1       -0.4811
     53 C          -3.8577    5.5107   -1.7707 C.ar    1  UNL1        0.1317
     54 C          -4.8481    6.4476   -1.4647 C.ar    1  UNL1        0.0221
     55 C          -5.0302    7.5722   -2.2760 C.ar    1  UNL1        0.1238
     56 O          -6.0168    8.5098   -1.9790 O.3     1  UNL1       -0.5065
     57 C          -4.2107    7.7634   -3.3906 C.ar    1  UNL1        0.0218
     58 C          -3.2127    6.8358   -3.7116 C.ar    1  UNL1        0.1270
     59 O          -2.3951    7.1054   -4.8115 O.3     1  UNL1       -0.5063
     60 C          -3.0538    5.6734   -2.9194 C.ar    1  UNL1        0.0384
     61 C          -2.0023    4.6336   -3.2437 C.3     1  UNL1        0.0092
     62 C          -2.2747    3.2810   -2.5591 C.3     1  UNL1        0.1004
     63 O          -1.1478    2.4537   -2.6874 O.3     1  UNL1       -0.3875
     64 H           0.6621    1.0817   -0.3356 H       1  UNL1        0.0811
     65 H           4.3025   -0.8375    1.1110 H       1  UNL1        0.0691
     66 H          10.1704   -2.5803   -1.4060 H       1  UNL1        0.0663
     67 H          13.5021   -2.5210   -0.0559 H       1  UNL1        0.2923
     68 H          13.6538   -1.4245    1.7535 H       1  UNL1        0.2924
     69 H           9.7184    0.6066    3.5045 H       1  UNL1        0.2923
     70 H           8.3220   -0.2065    1.6811 H       1  UNL1        0.0663
     71 H           6.2442   -0.4346   -2.7029 H       1  UNL1        0.0691
     72 H           3.2689    0.2332   -4.6180 H       1  UNL1        0.2921
     73 H           1.4462    0.9780   -2.8517 H       1  UNL1        0.0342
     74 H           1.5007   -0.6763   -3.5593 H       1  UNL1        0.0342
     75 H          -0.5404   -0.1085   -2.1179 H       1  UNL1        0.0637
     76 H           1.0899   -2.3530   -1.4027 H       1  UNL1        0.2100
     77 H           0.5622   -2.2307    1.2495 H       1  UNL1        0.0659
     78 H          -0.3228   -3.9781    2.6344 H       1  UNL1        0.2923
     79 H          -5.0053   -6.3541    1.7576 H       1  UNL1        0.0663
     80 H          -6.3750   -8.3226    2.2228 H       1  UNL1        0.2923
     81 H          -8.6550   -6.1170    5.8186 H       1  UNL1        0.2924
     82 H          -7.2661   -2.9266    5.9603 H       1  UNL1        0.2923
     83 H          -5.5899   -2.8432    4.1949 H       1  UNL1        0.0663
     84 H          -6.0018    0.0111    2.5831 H       1  UNL1        0.2923
     85 H          -4.8320    2.1560   -1.2596 H       1  UNL1        0.0661
     86 H          -0.9658    2.1096    0.3762 H       1  UNL1        0.0628
     87 H          -1.7087    3.9837   -0.5919 H       1  UNL1        0.0811
     88 H          -5.4718    6.3023   -0.5915 H       1  UNL1        0.0691
     89 H          -6.6259    8.4016   -1.1764 H       1  UNL1        0.2921
     90 H          -4.3417    8.6451   -4.0057 H       1  UNL1        0.0691
     91 H          -1.6033    6.5316   -5.0696 H       1  UNL1        0.2921
     92 H          -1.0106    5.0220   -2.9247 H       1  UNL1        0.0342
     93 H          -1.9748    4.4508   -4.3389 H       1  UNL1        0.0342
     94 H          -3.1564    2.8014   -3.0469 H       1  UNL1        0.0637
     95 H          -1.1432    2.1184   -3.6218 H       1  UNL1        0.2100
@<TRIPOS>BOND
     1     1     2    1
     2     2     3    1
     3     3     4   ar
     4     4     5   ar
     5     5     6    1
     6     6     7    1
     7     7     8    2
     8     7     9    1
     9     9    10   ar
    10    10    11   ar
    11    11    12    1
    12    11    13   ar
    13    13    14    1
    14    13    15   ar
    15    15    16    1
    16    15    17   ar
    17     5    18   ar
    18    18    19   ar
    19    19    20    1
    20    19    21   ar
    21    21    22    1
    22    22    23    1
    23    23    24    1
    24     1    25    1
    25    25    26   ar
    26    26    27   ar
    27    27    28    1
    28    27    29   ar
    29    29    30    1
    30    30    31    1
    31    31    32    2
    32    31    33    1
    33    33    34   ar
    34    34    35   ar
    35    35    36    1
    36    35    37   ar
    37    37    38    1
    38    37    39   ar
    39    39    40    1
    40    39    41   ar
    41    29    42   ar
    42    42    43   ar
    43    43    44    1
    44    43    45   ar
    45    45    46    2
    46    45    47   ar
    47    47    48   ar
    48    48    49   ar
    49    49    50   ar
    50    48    51    1
    51    51    52    1
    52    52    53    1
    53    53    54   ar
    54    54    55   ar
    55    55    56    1
    56    55    57   ar
    57    57    58   ar
    58    58    59    1
    59    58    60   ar
    60    60    61    1
    61    61    62    1
    62    62    63    1
    63    23     1    1
    64    50    25   ar
    65    62    51    1
    66    21     3   ar
    67    41    33   ar
    68    50    42   ar
    69    60    53   ar
    70    17     9   ar
    71     1    64    1
    72     4    65    1
    73    10    66    1
    74    12    67    1
    75    14    68    1
    76    16    69    1
    77    17    70    1
    78    18    71    1
    79    20    72    1
    80    22    73    1
    81    22    74    1
    82    23    75    1
    83    24    76    1
    84    26    77    1
    85    28    78    1
    86    34    79    1
    87    36    80    1
    88    38    81    1
    89    40    82    1
    90    41    83    1
    91    44    84    1
    92    47    85    1
    93    49    86    1
    94    51    87    1
    95    54    88    1
    96    56    89    1
    97    57    90    1
    98    59    91    1
    99    61    92    1
   100    61    93    1
   101    62    94    1
   102    63    95    1
