@<TRIPOS>MOLECULE
(+)-Gallocatechin 3-O-gallate
 51 54 0 0 0
SMALL
GASTEIGER

@<TRIPOS>ATOM
      1 O          -1.1779   -4.9928    1.9333 O.3     1  UNL1       -0.5065
      2 C          -1.1267   -3.8287    1.1698 C.ar    1  UNL1        0.1238
      3 C          -1.1426   -3.8915   -0.2293 C.ar    1  UNL1        0.0218
      4 C          -1.0898   -2.7162   -0.9923 C.ar    1  UNL1        0.1271
      5 O          -1.1237   -2.7871   -2.3848 O.3     1  UNL1       -0.5063
      6 C          -1.0045   -1.4672   -0.3488 C.ar    1  UNL1        0.0395
      7 C          -0.9839   -0.1855   -1.1457 C.3     1  UNL1        0.0204
      8 C          -0.3295    0.9617   -0.3531 C.3     1  UNL1        0.1483
      9 O           1.0681    0.7088   -0.1946 O.3     1  UNL1       -0.4534
     10 C           2.0093    0.8635   -1.2201 C.2     1  UNL1        0.3398
     11 O           1.6588    1.3395   -2.3353 O.2     1  UNL1       -0.2449
     12 C           3.4166    0.4704   -0.9885 C.ar    1  UNL1        0.0661
     13 C           3.8019   -0.0870    0.2409 C.ar    1  UNL1       -0.0023
     14 C           5.1281   -0.4684    0.4760 C.ar    1  UNL1        0.1628
     15 O           5.4351   -1.0163    1.7234 O.3     1  UNL1       -0.5032
     16 C           6.0969   -0.2900   -0.5398 C.ar    1  UNL1        0.2006
     17 O           7.4367   -0.6481   -0.3705 O.3     1  UNL1       -0.5009
     18 C           5.7143    0.2657   -1.7686 C.ar    1  UNL1        0.1628
     19 O           6.6684    0.4412   -2.7700 O.3     1  UNL1       -0.5032
     20 C           4.3838    0.6425   -1.9909 C.ar    1  UNL1       -0.0023
     21 C          -0.9678    1.0849    1.0460 C.3     1  UNL1        0.1624
     22 O          -0.9572   -0.1767    1.7245 O.3     1  UNL1       -0.4800
     23 C          -1.0110   -1.4094    1.0593 C.ar    1  UNL1        0.1318
     24 C          -1.0629   -2.5880    1.8089 C.ar    1  UNL1        0.0221
     25 C          -2.3662    1.6723    0.9783 C.ar    1  UNL1        0.0034
     26 C          -2.5195    3.0652    0.8851 C.ar    1  UNL1       -0.0095
     27 C          -3.7895    3.6420    0.7883 C.ar    1  UNL1        0.1623
     28 O          -3.8957    5.0301    0.7039 O.3     1  UNL1       -0.5032
     29 C          -4.9320    2.8247    0.7752 C.ar    1  UNL1        0.2006
     30 O          -6.1961    3.4082    0.6796 O.3     1  UNL1       -0.5009
     31 C          -4.7907    1.4292    0.8557 C.ar    1  UNL1        0.1623
     32 O          -5.9202    0.6119    0.8363 O.3     1  UNL1       -0.5032
     33 C          -3.5140    0.8594    0.9531 C.ar    1  UNL1       -0.0095
     34 H          -1.2259   -5.9081    1.5010 H       1  UNL1        0.2921
     35 H          -1.2005   -4.8530   -0.7239 H       1  UNL1        0.0691
     36 H          -1.1852   -3.6745   -2.8702 H       1  UNL1        0.2921
     37 H          -0.4304   -0.3322   -2.0973 H       1  UNL1        0.0353
     38 H          -2.0274    0.0892   -1.4093 H       1  UNL1        0.0353
     39 H          -0.4674    1.9204   -0.9022 H       1  UNL1        0.0778
     40 H           3.0719   -0.2319    1.0281 H       1  UNL1        0.0663
     41 H           6.3575   -1.3244    1.9947 H       1  UNL1        0.2923
     42 H           7.8119   -1.0538    0.4745 H       1  UNL1        0.2924
     43 H           6.4270    0.8397   -3.6700 H       1  UNL1        0.2923
     44 H           4.1102    1.0695   -2.9479 H       1  UNL1        0.0663
     45 H          -0.3410    1.7798    1.6474 H       1  UNL1        0.0822
     46 H          -1.0581   -2.5384    2.8906 H       1  UNL1        0.0691
     47 H          -1.6472    3.7078    0.8849 H       1  UNL1        0.0659
     48 H          -4.7907    5.4988    0.6312 H       1  UNL1        0.2923
     49 H          -7.0457    2.8568    0.6662 H       1  UNL1        0.2924
     50 H          -5.8470   -0.3973    0.8916 H       1  UNL1        0.2923
     51 H          -3.4285   -0.2167    1.0050 H       1  UNL1        0.0659
@<TRIPOS>BOND
     1     1     2    1
     2     2     3   ar
     3     3     4   ar
     4     4     5    1
     5     4     6   ar
     6     6     7    1
     7     7     8    1
     8     8     9    1
     9     9    10    1
    10    10    11    2
    11    10    12    1
    12    12    13   ar
    13    13    14   ar
    14    14    15    1
    15    14    16   ar
    16    16    17    1
    17    16    18   ar
    18    18    19    1
    19    18    20   ar
    20     8    21    1
    21    21    22    1
    22    22    23    1
    23    23    24   ar
    24    21    25    1
    25    25    26   ar
    26    26    27   ar
    27    27    28    1
    28    27    29   ar
    29    29    30    1
    30    29    31   ar
    31    31    32    1
    32    31    33   ar
    33    24     2   ar
    34    33    25   ar
    35    23     6   ar
    36    20    12   ar
    37     1    34    1
    38     3    35    1
    39     5    36    1
    40     7    37    1
    41     7    38    1
    42     8    39    1
    43    13    40    1
    44    15    41    1
    45    17    42    1
    46    19    43    1
    47    20    44    1
    48    21    45    1
    49    24    46    1
    50    26    47    1
    51    28    48    1
    52    30    49    1
    53    32    50    1
    54    33    51    1
