@<TRIPOS>MOLECULE
(+)-Catechin 3-O-gallate
 50 53 0 0 0
SMALL
GASTEIGER

@<TRIPOS>ATOM
      1 O          -2.0616   -5.1293   -1.0879 O.3     1  UNL1       -0.5065
      2 C          -1.8539   -3.7582   -1.2211 C.ar    1  UNL1        0.1238
      3 C          -1.5546   -2.9944   -0.0922 C.ar    1  UNL1        0.0221
      4 C          -1.3382   -1.6188   -0.2066 C.ar    1  UNL1        0.1318
      5 C          -1.3926   -0.9927   -1.4710 C.ar    1  UNL1        0.0395
      6 C          -1.1385    0.4956   -1.5699 C.3     1  UNL1        0.0204
      7 C          -0.3125    1.0249   -0.3868 C.3     1  UNL1        0.1483
      8 O           1.0293    0.5512   -0.5195 O.3     1  UNL1       -0.4534
      9 C           2.1212    1.1057    0.1598 C.2     1  UNL1        0.3398
     10 O           1.9649    2.1285    0.8826 O.2     1  UNL1       -0.2449
     11 C           3.4591    0.4897    0.0217 C.ar    1  UNL1        0.0661
     12 C           3.6301   -0.6599   -0.7671 C.ar    1  UNL1       -0.0023
     13 C           4.8899   -1.2521   -0.9027 C.ar    1  UNL1        0.1628
     14 O           5.0173   -2.3929   -1.6949 O.3     1  UNL1       -0.5032
     15 C           6.0013   -0.6972   -0.2460 C.ar    1  UNL1        0.2006
     16 O           7.2546   -1.2946   -0.3871 O.3     1  UNL1       -0.5009
     17 C           5.8402    0.4524    0.5458 C.ar    1  UNL1        0.1628
     18 O           6.9388    1.0079    1.2003 O.3     1  UNL1       -0.5032
     19 C           4.5741    1.0398    0.6767 C.ar    1  UNL1       -0.0023
     20 C          -0.9087    0.5445    0.9540 C.3     1  UNL1        0.1622
     21 O          -1.0673   -0.8774    0.9512 O.3     1  UNL1       -0.4800
     22 C          -2.2092    1.2579    1.2770 C.ar    1  UNL1       -0.0001
     23 C          -3.4652    0.6930    0.9829 C.ar    1  UNL1       -0.0097
     24 C          -4.6455    1.3916    1.2615 C.ar    1  UNL1        0.1586
     25 O          -5.8707    0.7973    0.9604 O.3     1  UNL1       -0.5033
     26 C          -4.5823    2.6725    1.8340 C.ar    1  UNL1        0.1582
     27 O          -5.7548    3.3722    2.1145 O.3     1  UNL1       -0.5033
     28 C          -3.3360    3.2437    2.1193 C.ar    1  UNL1       -0.0162
     29 C          -2.1598    2.5447    1.8392 C.ar    1  UNL1       -0.0513
     30 C          -1.7448   -1.7621   -2.6058 C.ar    1  UNL1        0.1271
     31 O          -1.9093   -1.1939   -3.8711 O.3     1  UNL1       -0.5063
     32 C          -1.9521   -3.1399   -2.4726 C.ar    1  UNL1        0.0218
     33 H          -2.2833   -5.7116   -1.8870 H       1  UNL1        0.2921
     34 H          -1.4961   -3.4692    0.8792 H       1  UNL1        0.0691
     35 H          -0.5747    0.7301   -2.4975 H       1  UNL1        0.0353
     36 H          -2.1140    1.0256   -1.6159 H       1  UNL1        0.0353
     37 H          -0.3124    2.1375   -0.4325 H       1  UNL1        0.0778
     38 H           2.7865   -1.1047   -1.2808 H       1  UNL1        0.0663
     39 H           5.9057   -2.8612   -1.8268 H       1  UNL1        0.2923
     40 H           8.0818   -0.9281    0.0682 H       1  UNL1        0.2924
     41 H           6.8508    1.8363    1.7773 H       1  UNL1        0.2923
     42 H           4.4656    1.9254    1.2906 H       1  UNL1        0.0663
     43 H          -0.1901    0.7848    1.7669 H       1  UNL1        0.0822
     44 H          -3.5417   -0.2876    0.5355 H       1  UNL1        0.0659
     45 H          -6.7528    1.2611    1.1414 H       1  UNL1        0.2923
     46 H          -5.7348    4.2978    2.5267 H       1  UNL1        0.2923
     47 H          -3.2772    4.2327    2.5557 H       1  UNL1        0.0655
     48 H          -1.2061    3.0091    2.0587 H       1  UNL1        0.0623
     49 H          -1.8651   -0.1986   -4.0446 H       1  UNL1        0.2921
     50 H          -2.2052   -3.7289   -3.3454 H       1  UNL1        0.0691
@<TRIPOS>BOND
     1     1     2    1
     2     2     3   ar
     3     3     4   ar
     4     4     5   ar
     5     5     6    1
     6     6     7    1
     7     7     8    1
     8     8     9    1
     9     9    10    2
    10     9    11    1
    11    11    12   ar
    12    12    13   ar
    13    13    14    1
    14    13    15   ar
    15    15    16    1
    16    15    17   ar
    17    17    18    1
    18    17    19   ar
    19     7    20    1
    20    20    21    1
    21    20    22    1
    22    22    23   ar
    23    23    24   ar
    24    24    25    1
    25    24    26   ar
    26    26    27    1
    27    26    28   ar
    28    28    29   ar
    29     5    30   ar
    30    30    31    1
    31    30    32   ar
    32    32     2   ar
    33    21     4    1
    34    29    22   ar
    35    19    11   ar
    36     1    33    1
    37     3    34    1
    38     6    35    1
    39     6    36    1
    40     7    37    1
    41    12    38    1
    42    14    39    1
    43    16    40    1
    44    18    41    1
    45    19    42    1
    46    20    43    1
    47    23    44    1
    48    25    45    1
    49    27    46    1
    50    28    47    1
    51    29    48    1
    52    31    49    1
    53    32    50    1
