@<TRIPOS>MOLECULE
Procyanidin dimer B1
 68 73 0 0 0
SMALL
GASTEIGER

@<TRIPOS>ATOM
      1 C           3.4150    1.9072    1.3189 C.3     1  UNL1        0.1004
      2 O           2.5841    2.5683    2.2395 O.3     1  UNL1       -0.3875
      3 C           3.6431    0.4546    1.7719 C.3     1  UNL1        0.0092
      4 C           2.4073   -0.4058    1.6107 C.ar    1  UNL1        0.0387
      5 C           2.2684   -1.6184    2.3180 C.ar    1  UNL1        0.1271
      6 O           3.2627   -2.1065    3.1696 O.3     1  UNL1       -0.5063
      7 C           1.1089   -2.3764    2.1688 C.ar    1  UNL1        0.0221
      8 C           0.0977   -1.9866    1.2854 C.ar    1  UNL1        0.1277
      9 O          -1.0454   -2.7781    1.1825 O.3     1  UNL1       -0.5062
     10 C           0.2488   -0.8144    0.5056 C.ar    1  UNL1        0.0463
     11 C           1.4072   -0.0241    0.6880 C.ar    1  UNL1        0.1355
     12 O           1.5604    1.1524   -0.0639 O.3     1  UNL1       -0.4808
     13 C           2.7497    1.9442   -0.0664 C.3     1  UNL1        0.1513
     14 C           3.7057    1.5241   -1.1701 C.ar    1  UNL1       -0.0012
     15 C           4.6567    2.4476   -1.6370 C.ar    1  UNL1       -0.0513
     16 C           5.5662    2.0891   -2.6349 C.ar    1  UNL1       -0.0162
     17 C           5.5438    0.7994   -3.1794 C.ar    1  UNL1        0.1582
     18 O           6.4487    0.4377   -4.1757 O.3     1  UNL1       -0.5033
     19 C           4.6074   -0.1338   -2.7193 C.ar    1  UNL1        0.1586
     20 O           4.5888   -1.4176   -3.2618 O.3     1  UNL1       -0.5033
     21 C           3.6952    0.2255   -1.7170 C.ar    1  UNL1       -0.0098
     22 C          -0.8137   -0.3424   -0.4939 C.3     1  UNL1        0.0528
     23 C          -1.4853   -1.4842   -1.2400 C.ar    1  UNL1        0.0461
     24 C          -0.7642   -2.2406   -2.1859 C.ar    1  UNL1        0.1276
     25 O           0.5771   -1.9510   -2.4378 O.3     1  UNL1       -0.5062
     26 C          -1.3963   -3.2852   -2.8743 C.ar    1  UNL1        0.0218
     27 C          -2.7426   -3.5823   -2.6291 C.ar    1  UNL1        0.1238
     28 O          -3.3774   -4.6160   -3.3140 O.3     1  UNL1       -0.5065
     29 C          -3.4584   -2.8380   -1.6884 C.ar    1  UNL1        0.0221
     30 C          -2.8375   -1.8013   -0.9862 C.ar    1  UNL1        0.1323
     31 O          -3.5765   -1.0793   -0.0426 O.3     1  UNL1       -0.4811
     32 C          -2.9685   -0.1638    0.8698 C.3     1  UNL1        0.1518
     33 C          -4.0037    0.7677    1.4584 C.ar    1  UNL1       -0.0012
     34 C          -5.0967    1.2124    0.6942 C.ar    1  UNL1       -0.0513
     35 C          -6.0250    2.1022    1.2403 C.ar    1  UNL1       -0.0162
     36 C          -5.8691    2.5705    2.5516 C.ar    1  UNL1        0.1582
     37 O          -6.7976    3.4576    3.0939 O.3     1  UNL1       -0.5033
     38 C          -4.7705    2.1447    3.3170 C.ar    1  UNL1        0.1586
     39 O          -4.5826    2.5981    4.6223 O.3     1  UNL1       -0.5033
     40 C          -3.8429    1.2527    2.7672 C.ar    1  UNL1       -0.0098
     41 C          -1.8344    0.6199    0.1746 C.3     1  UNL1        0.1074
     42 O          -2.3503    1.5280   -0.7708 O.3     1  UNL1       -0.3868
     43 H           4.3980    2.4323    1.2662 H       1  UNL1        0.0637
     44 H           3.1462    2.7921    3.0269 H       1  UNL1        0.2100
     45 H           4.4701    0.0057    1.1808 H       1  UNL1        0.0342
     46 H           3.9588    0.4823    2.8362 H       1  UNL1        0.0342
     47 H           4.1725   -1.6768    3.2707 H       1  UNL1        0.2921
     48 H           0.9999   -3.2915    2.7378 H       1  UNL1        0.0691
     49 H          -1.1653   -3.6209    1.7319 H       1  UNL1        0.2921
     50 H           2.4415    2.9928   -0.2738 H       1  UNL1        0.0811
     51 H           4.6944    3.4486   -1.2251 H       1  UNL1        0.0623
     52 H           6.2898    2.8150   -2.9833 H       1  UNL1        0.0655
     53 H           7.1381    1.0915   -4.5283 H       1  UNL1        0.2923
     54 H           3.9233   -2.1156   -2.9504 H       1  UNL1        0.2923
     55 H           2.9859   -0.5144   -1.3766 H       1  UNL1        0.0659
     56 H          -0.3008    0.2512   -1.2828 H       1  UNL1        0.0429
     57 H           1.1185   -2.4804   -3.1111 H       1  UNL1        0.2921
     58 H          -0.8415   -3.8646   -3.6015 H       1  UNL1        0.0691
     59 H          -2.8868   -5.1753   -4.0020 H       1  UNL1        0.2921
     60 H          -4.4984   -3.0703   -1.4961 H       1  UNL1        0.0691
     61 H          -2.5260   -0.7579    1.6977 H       1  UNL1        0.0811
     62 H          -5.2306    0.8744   -0.3257 H       1  UNL1        0.0623
     63 H          -6.8643    2.4312    0.6408 H       1  UNL1        0.0655
     64 H          -7.5973    3.7799    2.5615 H       1  UNL1        0.2923
     65 H          -5.2245    3.2446    5.0650 H       1  UNL1        0.2923
     66 H          -2.9936    0.9391    3.3624 H       1  UNL1        0.0659
     67 H          -1.3068    1.2235    0.9467 H       1  UNL1        0.0643
     68 H          -2.8053    1.0054   -1.4813 H       1  UNL1        0.2100
@<TRIPOS>BOND
     1     1     2    1
     2     1     3    1
     3     3     4    1
     4     4     5   ar
     5     5     6    1
     6     5     7   ar
     7     7     8   ar
     8     8     9    1
     9     8    10   ar
    10    10    11   ar
    11    11    12    1
    12    12    13    1
    13    13    14    1
    14    14    15   ar
    15    15    16   ar
    16    16    17   ar
    17    17    18    1
    18    17    19   ar
    19    19    20    1
    20    19    21   ar
    21    10    22    1
    22    22    23    1
    23    23    24   ar
    24    24    25    1
    25    24    26   ar
    26    26    27   ar
    27    27    28    1
    28    27    29   ar
    29    29    30   ar
    30    30    31    1
    31    31    32    1
    32    32    33    1
    33    33    34   ar
    34    34    35   ar
    35    35    36   ar
    36    36    37    1
    37    36    38   ar
    38    38    39    1
    39    38    40   ar
    40    32    41    1
    41    41    42    1
    42    13     1    1
    43    21    14   ar
    44    41    22    1
    45    11     4   ar
    46    30    23   ar
    47    40    33   ar
    48     1    43    1
    49     2    44    1
    50     3    45    1
    51     3    46    1
    52     6    47    1
    53     7    48    1
    54     9    49    1
    55    13    50    1
    56    15    51    1
    57    16    52    1
    58    18    53    1
    59    20    54    1
    60    21    55    1
    61    22    56    1
    62    25    57    1
    63    26    58    1
    64    28    59    1
    65    29    60    1
    66    32    61    1
    67    34    62    1
    68    35    63    1
    69    37    64    1
    70    39    65    1
    71    40    66    1
    72    41    67    1
    73    42    68    1
