@<TRIPOS>MOLECULE
Procyanidin dimer B2
 68 73 0 0 0
SMALL
GASTEIGER

@<TRIPOS>ATOM
      1 C          -1.3304   -2.0653    0.6281 C.3     1  UNL1        0.0528
      2 C          -2.0234   -1.2728   -0.5172 C.3     1  UNL1        0.1074
      3 O          -3.4211   -1.4399   -0.4641 O.3     1  UNL1       -0.3868
      4 C          -1.6380    0.2184   -0.4648 C.3     1  UNL1        0.1518
      5 O          -1.9282    0.7594    0.8221 O.3     1  UNL1       -0.4811
      6 C          -1.6902    0.0471    2.0019 C.ar    1  UNL1        0.1323
      7 C          -1.7604    0.7250    3.2209 C.ar    1  UNL1        0.0221
      8 C          -1.5076    0.0519    4.4193 C.ar    1  UNL1        0.1238
      9 O          -1.5682    0.7245    5.6377 O.3     1  UNL1       -0.5065
     10 C          -1.1880   -1.3065    4.3978 C.ar    1  UNL1        0.0218
     11 C          -1.1224   -2.0078    3.1887 C.ar    1  UNL1        0.1276
     12 O          -0.7882   -3.3633    3.2388 O.3     1  UNL1       -0.5062
     13 C          -1.3876   -1.3356    1.9683 C.ar    1  UNL1        0.0461
     14 C          -2.3267    1.0158   -1.5474 C.ar    1  UNL1       -0.0012
     15 C          -3.6090    1.5562   -1.3461 C.ar    1  UNL1       -0.0098
     16 C          -4.2478    2.2734   -2.3682 C.ar    1  UNL1        0.1586
     17 O          -5.5161    2.8124   -2.1580 O.3     1  UNL1       -0.5033
     18 C          -3.6063    2.4456   -3.6065 C.ar    1  UNL1        0.1582
     19 O          -4.2141    3.1556   -4.6414 O.3     1  UNL1       -0.5033
     20 C          -2.3374    1.8958   -3.8131 C.ar    1  UNL1       -0.0162
     21 C          -1.7036    1.1801   -2.7949 C.ar    1  UNL1       -0.0513
     22 C           0.0874   -2.4965    0.2197 C.ar    1  UNL1        0.0463
     23 C           0.2751   -3.6827   -0.5412 C.ar    1  UNL1        0.1277
     24 O          -0.7889   -4.4590   -1.0109 O.3     1  UNL1       -0.5062
     25 C           1.5625   -4.1109   -0.8686 C.ar    1  UNL1        0.0221
     26 C           2.6841   -3.3667   -0.5041 C.ar    1  UNL1        0.1271
     27 O           3.9579   -3.8076   -0.8645 O.3     1  UNL1       -0.5063
     28 C           2.5273   -2.1709    0.2098 C.ar    1  UNL1        0.0387
     29 C           1.2321   -1.7171    0.5424 C.ar    1  UNL1        0.1355
     30 O           1.0826   -0.4870    1.1988 O.3     1  UNL1       -0.4808
     31 C           2.1531    0.4149    1.4807 C.3     1  UNL1        0.1513
     32 C           3.4671   -0.3579    1.6984 C.3     1  UNL1        0.1004
     33 O           4.5381    0.5382    1.8483 O.3     1  UNL1       -0.3875
     34 C           3.7381   -1.3272    0.5384 C.3     1  UNL1        0.0092
     35 C           2.2555    1.4880    0.4092 C.ar    1  UNL1       -0.0012
     36 C           2.0853    1.1912   -0.9567 C.ar    1  UNL1       -0.0098
     37 C           2.1814    2.1999   -1.9257 C.ar    1  UNL1        0.1586
     38 O           2.0032    1.8946   -3.2742 O.3     1  UNL1       -0.5033
     39 C           2.4594    3.5194   -1.5346 C.ar    1  UNL1        0.1582
     40 O           2.5575    4.5451   -2.4742 O.3     1  UNL1       -0.5033
     41 C           2.6443    3.8168   -0.1818 C.ar    1  UNL1       -0.0162
     42 C           2.5475    2.8109    0.7826 C.ar    1  UNL1       -0.0513
     43 H          -1.9395   -2.9778    0.7900 H       1  UNL1        0.0429
     44 H          -1.6864   -1.6801   -1.4963 H       1  UNL1        0.0643
     45 H          -3.7372   -1.1083    0.4161 H       1  UNL1        0.2100
     46 H          -0.5439    0.2978   -0.6212 H       1  UNL1        0.0811
     47 H          -2.0011    1.7806    3.2332 H       1  UNL1        0.0691
     48 H          -1.7958    1.7107    5.6877 H       1  UNL1        0.2921
     49 H          -0.9873   -1.8227    5.3284 H       1  UNL1        0.0691
     50 H          -0.6980   -3.9482    2.4192 H       1  UNL1        0.2921
     51 H          -4.1138    1.4204   -0.3977 H       1  UNL1        0.0659
     52 H          -6.0003    2.7018   -1.2747 H       1  UNL1        0.2923
     53 H          -5.1320    3.5722   -4.5414 H       1  UNL1        0.2923
     54 H          -1.8423    2.0206   -4.7678 H       1  UNL1        0.0655
     55 H          -0.7258    0.7530   -2.9793 H       1  UNL1        0.0623
     56 H          -1.7594   -4.1811   -0.9695 H       1  UNL1        0.2921
     57 H           1.6888   -5.0241   -1.4371 H       1  UNL1        0.0691
     58 H           4.0966   -4.6661   -1.3847 H       1  UNL1        0.2921
     59 H           1.8992    0.9118    2.4430 H       1  UNL1        0.0811
     60 H           3.3516   -0.9560    2.6336 H       1  UNL1        0.0637
     61 H           5.2888    0.0237    2.2451 H       1  UNL1        0.2100
     62 H           4.0421   -0.7617   -0.3681 H       1  UNL1        0.0342
     63 H           4.5882   -1.9829    0.8273 H       1  UNL1        0.0342
     64 H           1.8715    0.1822   -1.2783 H       1  UNL1        0.0659
     65 H           1.8073    0.9497   -3.5836 H       1  UNL1        0.2923
     66 H           2.4309    4.3804   -3.4656 H       1  UNL1        0.2923
     67 H           2.8640    4.8319    0.1236 H       1  UNL1        0.0655
     68 H           2.6977    3.0666    1.8243 H       1  UNL1        0.0623
@<TRIPOS>BOND
     1     1     2    1
     2     2     3    1
     3     2     4    1
     4     4     5    1
     5     5     6    1
     6     6     7   ar
     7     7     8   ar
     8     8     9    1
     9     8    10   ar
    10    10    11   ar
    11    11    12    1
    12    11    13   ar
    13     4    14    1
    14    14    15   ar
    15    15    16   ar
    16    16    17    1
    17    16    18   ar
    18    18    19    1
    19    18    20   ar
    20    20    21   ar
    21     1    22    1
    22    22    23   ar
    23    23    24    1
    24    23    25   ar
    25    25    26   ar
    26    26    27    1
    27    26    28   ar
    28    28    29   ar
    29    29    30    1
    30    30    31    1
    31    31    32    1
    32    32    33    1
    33    32    34    1
    34    31    35    1
    35    35    36   ar
    36    36    37   ar
    37    37    38    1
    38    37    39   ar
    39    39    40    1
    40    39    41   ar
    41    41    42   ar
    42    13     1    1
    43    21    14   ar
    44    29    22   ar
    45    42    35   ar
    46    13     6   ar
    47    34    28    1
    48     1    43    1
    49     2    44    1
    50     3    45    1
    51     4    46    1
    52     7    47    1
    53     9    48    1
    54    10    49    1
    55    12    50    1
    56    15    51    1
    57    17    52    1
    58    19    53    1
    59    20    54    1
    60    21    55    1
    61    24    56    1
    62    25    57    1
    63    27    58    1
    64    31    59    1
    65    32    60    1
    66    33    61    1
    67    34    62    1
    68    34    63    1
    69    36    64    1
    70    38    65    1
    71    40    66    1
    72    41    67    1
    73    42    68    1
