@<TRIPOS>MOLECULE
Procyanidin dimer B3
 68 73 0 0 0
SMALL
GASTEIGER

@<TRIPOS>ATOM
      1 C           0.5122   -1.1446    0.5286 C.3     1  UNL1        0.0528
      2 C           1.4626    0.0852    0.4758 C.3     1  UNL1        0.1074
      3 O           0.8085    1.1952   -0.0908 O.3     1  UNL1       -0.3868
      4 C           2.7553   -0.2461   -0.2892 C.3     1  UNL1        0.1518
      5 O           3.3868   -1.3637    0.3273 O.3     1  UNL1       -0.4811
      6 C           2.6624   -2.4965    0.7054 C.ar    1  UNL1        0.1323
      7 C           3.3585   -3.6626    1.0324 C.ar    1  UNL1        0.0221
      8 C           2.6671   -4.8344    1.3383 C.ar    1  UNL1        0.1238
      9 O           3.3778   -5.9861    1.6686 O.3     1  UNL1       -0.5065
     10 C           1.2696   -4.8476    1.2903 C.ar    1  UNL1        0.0218
     11 C           0.5556   -3.6895    0.9626 C.ar    1  UNL1        0.1276
     12 O          -0.8311   -3.7945    0.8402 O.3     1  UNL1       -0.5062
     13 C           1.2490   -2.4692    0.7474 C.ar    1  UNL1        0.0461
     14 C           3.7007    0.9324   -0.3037 C.ar    1  UNL1       -0.0012
     15 C           3.8013    1.7427   -1.4455 C.ar    1  UNL1       -0.0098
     16 C           4.6476    2.8585   -1.4640 C.ar    1  UNL1        0.1586
     17 O           4.7010    3.6168   -2.6354 O.3     1  UNL1       -0.5033
     18 C           5.4060    3.1770   -0.3123 C.ar    1  UNL1        0.1582
     19 O           6.2730    4.2701   -0.2576 O.3     1  UNL1       -0.5033
     20 C           5.2925    2.3745    0.8285 C.ar    1  UNL1       -0.0162
     21 C           4.4452    1.2654    0.8381 C.ar    1  UNL1       -0.0513
     22 C          -0.5537   -0.8828    1.5948 C.ar    1  UNL1        0.0463
     23 C          -0.2642   -1.0327    2.9692 C.ar    1  UNL1        0.1277
     24 O           1.0079   -1.4256    3.3867 O.3     1  UNL1       -0.5062
     25 C          -1.2547   -0.7892    3.9252 C.ar    1  UNL1        0.0221
     26 C          -2.5269   -0.3585    3.5487 C.ar    1  UNL1        0.1271
     27 O          -3.4824   -0.1838    4.5527 O.3     1  UNL1       -0.5063
     28 C          -2.8110   -0.1181    2.1869 C.ar    1  UNL1        0.0387
     29 C          -1.8294   -0.4124    1.2128 C.ar    1  UNL1        0.1355
     30 O          -2.1115   -0.2178   -0.1462 O.3     1  UNL1       -0.4808
     31 C          -3.4176    0.0783   -0.6342 C.3     1  UNL1        0.1513
     32 C          -4.1309    1.0270    0.3458 C.3     1  UNL1        0.1004
     33 O          -5.4314    1.3355   -0.0920 O.3     1  UNL1       -0.3875
     34 C          -4.1661    0.4031    1.7525 C.3     1  UNL1        0.0092
     35 C          -3.3127    0.6906   -2.0105 C.ar    1  UNL1       -0.0012
     36 C          -2.3850    1.7154   -2.2668 C.ar    1  UNL1       -0.0098
     37 C          -2.2962    2.2950   -3.5372 C.ar    1  UNL1        0.1586
     38 O          -1.3579    3.3028   -3.7576 O.3     1  UNL1       -0.5033
     39 C          -3.1482    1.8581   -4.5655 C.ar    1  UNL1        0.1582
     40 O          -3.0645    2.4307   -5.8337 O.3     1  UNL1       -0.5033
     41 C          -4.0835    0.8462   -4.3097 C.ar    1  UNL1       -0.0162
     42 C          -4.1684    0.2686   -3.0403 C.ar    1  UNL1       -0.0513
     43 H           0.0401   -1.2473   -0.4723 H       1  UNL1        0.0429
     44 H           1.7535    0.3595    1.5143 H       1  UNL1        0.0643
     45 H           0.6019    0.9724   -1.0362 H       1  UNL1        0.2100
     46 H           2.4948   -0.5338   -1.3330 H       1  UNL1        0.0811
     47 H           4.4414   -3.6618    1.0296 H       1  UNL1        0.0691
     48 H           2.9055   -6.8549    1.8899 H       1  UNL1        0.2921
     49 H           0.7335   -5.7680    1.4860 H       1  UNL1        0.0691
     50 H          -1.4076   -3.0681    0.4385 H       1  UNL1        0.2921
     51 H           3.2167    1.5105   -2.3276 H       1  UNL1        0.0659
     52 H           5.2735    4.4407   -2.7490 H       1  UNL1        0.2923
     53 H           6.4288    4.9061   -1.0263 H       1  UNL1        0.2923
     54 H           5.8642    2.6150    1.7161 H       1  UNL1        0.0655
     55 H           4.3683    0.6672    1.7377 H       1  UNL1        0.0623
     56 H           1.2363   -1.5410    4.3670 H       1  UNL1        0.2921
     57 H          -1.0354   -0.9397    4.9750 H       1  UNL1        0.0691
     58 H          -4.4501    0.0445    4.3673 H       1  UNL1        0.2921
     59 H          -3.9839   -0.8789   -0.6872 H       1  UNL1        0.0811
     60 H          -3.5546    1.9771    0.4063 H       1  UNL1        0.0637
     61 H          -5.9320    0.4820   -0.1761 H       1  UNL1        0.2100
     62 H          -4.8908   -0.4395    1.7778 H       1  UNL1        0.0342
     63 H          -4.5150    1.1916    2.4529 H       1  UNL1        0.0342
     64 H          -1.7302    2.0662   -1.4786 H       1  UNL1        0.0659
     65 H          -1.2543    3.7538   -4.6586 H       1  UNL1        0.2923
     66 H          -3.6683    2.1331   -6.5912 H       1  UNL1        0.2923
     67 H          -4.7473    0.5072   -5.0949 H       1  UNL1        0.0655
     68 H          -4.9022   -0.5076   -2.8616 H       1  UNL1        0.0623
@<TRIPOS>BOND
     1     1     2    1
     2     2     3    1
     3     2     4    1
     4     4     5    1
     5     5     6    1
     6     6     7   ar
     7     7     8   ar
     8     8     9    1
     9     8    10   ar
    10    10    11   ar
    11    11    12    1
    12    11    13   ar
    13     4    14    1
    14    14    15   ar
    15    15    16   ar
    16    16    17    1
    17    16    18   ar
    18    18    19    1
    19    18    20   ar
    20    20    21   ar
    21     1    22    1
    22    22    23   ar
    23    23    24    1
    24    23    25   ar
    25    25    26   ar
    26    26    27    1
    27    26    28   ar
    28    28    29   ar
    29    29    30    1
    30    30    31    1
    31    31    32    1
    32    32    33    1
    33    32    34    1
    34    31    35    1
    35    35    36   ar
    36    36    37   ar
    37    37    38    1
    38    37    39   ar
    39    39    40    1
    40    39    41   ar
    41    41    42   ar
    42    13     1    1
    43    21    14   ar
    44    29    22   ar
    45    42    35   ar
    46    13     6   ar
    47    34    28    1
    48     1    43    1
    49     2    44    1
    50     3    45    1
    51     4    46    1
    52     7    47    1
    53     9    48    1
    54    10    49    1
    55    12    50    1
    56    15    51    1
    57    17    52    1
    58    19    53    1
    59    20    54    1
    60    21    55    1
    61    24    56    1
    62    25    57    1
    63    27    58    1
    64    31    59    1
    65    32    60    1
    66    33    61    1
    67    34    62    1
    68    34    63    1
    69    36    64    1
    70    38    65    1
    71    40    66    1
    72    41    67    1
    73    42    68    1
