@<TRIPOS>MOLECULE
Procyanidin dimer B4
 68 73 0 0 0
SMALL
GASTEIGER

@<TRIPOS>ATOM
      1 C           0.1812    1.1739   -1.8678 C.3     1  UNL1        0.0528
      2 C          -0.1508    2.0769   -0.6514 C.3     1  UNL1        0.1074
      3 O          -0.8939    3.1863   -1.0929 O.3     1  UNL1       -0.3868
      4 C           1.1431    2.5488    0.0356 C.3     1  UNL1        0.1518
      5 O           1.9147    1.4166    0.4277 O.3     1  UNL1       -0.4811
      6 C           2.0789    0.3096   -0.4075 C.ar    1  UNL1        0.1323
      7 C           3.0327   -0.6547   -0.0722 C.ar    1  UNL1        0.0221
      8 C           3.2521   -1.7516   -0.9105 C.ar    1  UNL1        0.1238
      9 O           4.1878   -2.7267   -0.5730 O.3     1  UNL1       -0.5065
     10 C           2.5358   -1.8661   -2.1033 C.ar    1  UNL1        0.0218
     11 C           1.5711   -0.9092   -2.4494 C.ar    1  UNL1        0.1276
     12 O           0.8936   -1.0236   -3.6633 O.3     1  UNL1       -0.5062
     13 C           1.2890    0.1606   -1.5683 C.ar    1  UNL1        0.0461
     14 C           0.8462    3.4003    1.2481 C.ar    1  UNL1       -0.0012
     15 C           0.9658    4.7983    1.1768 C.ar    1  UNL1       -0.0098
     16 C           0.6632    5.5969    2.2857 C.ar    1  UNL1        0.1586
     17 O           0.7985    6.9808    2.1806 O.3     1  UNL1       -0.5033
     18 C           0.2284    4.9986    3.4805 C.ar    1  UNL1        0.1582
     19 O          -0.0732    5.7885    4.5888 O.3     1  UNL1       -0.5033
     20 C           0.0972    3.6054    3.5518 C.ar    1  UNL1       -0.0162
     21 C           0.3990    2.8116    2.4430 C.ar    1  UNL1       -0.0513
     22 C          -1.1084    0.5077   -2.3521 C.ar    1  UNL1        0.0463
     23 C          -1.7965    1.0181   -3.4713 C.ar    1  UNL1        0.1277
     24 O          -1.3055    2.1310   -4.1546 O.3     1  UNL1       -0.5062
     25 C          -2.9843    0.4152   -3.8998 C.ar    1  UNL1        0.0221
     26 C          -3.5045   -0.6997   -3.2398 C.ar    1  UNL1        0.1271
     27 O          -4.7115   -1.2308   -3.7005 O.3     1  UNL1       -0.5063
     28 C          -2.8146   -1.2442   -2.1355 C.ar    1  UNL1        0.0387
     29 C          -1.6522   -0.5994   -1.6626 C.ar    1  UNL1        0.1355
     30 O          -1.0066   -1.0790   -0.5167 O.3     1  UNL1       -0.4808
     31 C          -1.5331   -2.1154    0.3087 C.3     1  UNL1        0.1513
     32 C          -2.2167   -3.1675   -0.5867 C.3     1  UNL1        0.1004
     33 O          -1.2668   -3.7534   -1.4422 O.3     1  UNL1       -0.3875
     34 C          -3.3165   -2.4842   -1.4226 C.3     1  UNL1        0.0092
     35 C          -0.4182   -2.6295    1.2066 C.ar    1  UNL1       -0.0012
     36 C           0.3411   -1.6875    1.9220 C.ar    1  UNL1       -0.0098
     37 C           1.3972   -2.0799    2.7515 C.ar    1  UNL1        0.1586
     38 O           2.1148   -1.0793    3.4099 O.3     1  UNL1       -0.5033
     39 C           1.6974   -3.4537    2.8908 C.ar    1  UNL1        0.1582
     40 O           2.7414   -3.9212    3.6915 O.3     1  UNL1       -0.5033
     41 C           0.9244   -4.3967    2.2066 C.ar    1  UNL1       -0.0162
     42 C          -0.1270   -3.9964    1.3793 C.ar    1  UNL1       -0.0513
     43 H           0.5945    1.8270   -2.6671 H       1  UNL1        0.0429
     44 H          -0.7437    1.4843    0.0867 H       1  UNL1        0.0643
     45 H          -1.4703    3.4719   -0.3367 H       1  UNL1        0.2100
     46 H           1.7427    3.1342   -0.6976 H       1  UNL1        0.0811
     47 H           3.6074   -0.5457    0.8389 H       1  UNL1        0.0691
     48 H           4.7205   -2.6739    0.2875 H       1  UNL1        0.2921
     49 H           2.7301   -2.7019   -2.7637 H       1  UNL1        0.0691
     50 H           1.0754   -1.7863   -4.3050 H       1  UNL1        0.2921
     51 H           1.2914    5.2712    0.2583 H       1  UNL1        0.0659
     52 H           0.5915    7.6020    2.9535 H       1  UNL1        0.2923
     53 H          -0.3891    5.3805    5.4610 H       1  UNL1        0.2923
     54 H          -0.2422    3.1363    4.4666 H       1  UNL1        0.0655
     55 H           0.2827    1.7381    2.5162 H       1  UNL1        0.0623
     56 H          -1.7852    2.5166   -4.9596 H       1  UNL1        0.2921
     57 H          -3.5150    0.8218   -4.7518 H       1  UNL1        0.0691
     58 H          -5.2024   -1.9824   -3.2345 H       1  UNL1        0.2921
     59 H          -2.3104   -1.6716    0.9698 H       1  UNL1        0.0811
     60 H          -2.6953   -3.9431    0.0555 H       1  UNL1        0.0637
     61 H          -1.6619   -4.6033   -1.7693 H       1  UNL1        0.2100
     62 H          -4.1605   -2.1961   -0.7591 H       1  UNL1        0.0342
     63 H          -3.6922   -3.2265   -2.1585 H       1  UNL1        0.0342
     64 H           0.1190   -0.6321    1.8245 H       1  UNL1        0.0659
     65 H           2.8933   -1.2564    4.0280 H       1  UNL1        0.2923
     66 H           3.3602   -3.3220    4.2185 H       1  UNL1        0.2923
     67 H           1.1417   -5.4518    2.3168 H       1  UNL1        0.0655
     68 H          -0.6963   -4.7662    0.8794 H       1  UNL1        0.0623
@<TRIPOS>BOND
     1     1     2    1
     2     2     3    1
     3     2     4    1
     4     4     5    1
     5     5     6    1
     6     6     7   ar
     7     7     8   ar
     8     8     9    1
     9     8    10   ar
    10    10    11   ar
    11    11    12    1
    12    11    13   ar
    13     4    14    1
    14    14    15   ar
    15    15    16   ar
    16    16    17    1
    17    16    18   ar
    18    18    19    1
    19    18    20   ar
    20    20    21   ar
    21     1    22    1
    22    22    23   ar
    23    23    24    1
    24    23    25   ar
    25    25    26   ar
    26    26    27    1
    27    26    28   ar
    28    28    29   ar
    29    29    30    1
    30    30    31    1
    31    31    32    1
    32    32    33    1
    33    32    34    1
    34    31    35    1
    35    35    36   ar
    36    36    37   ar
    37    37    38    1
    38    37    39   ar
    39    39    40    1
    40    39    41   ar
    41    41    42   ar
    42    13     1    1
    43    21    14   ar
    44    29    22   ar
    45    42    35   ar
    46    13     6   ar
    47    34    28    1
    48     1    43    1
    49     2    44    1
    50     3    45    1
    51     4    46    1
    52     7    47    1
    53     9    48    1
    54    10    49    1
    55    12    50    1
    56    15    51    1
    57    17    52    1
    58    19    53    1
    59    20    54    1
    60    21    55    1
    61    24    56    1
    62    25    57    1
    63    27    58    1
    64    31    59    1
    65    32    60    1
    66    33    61    1
    67    34    62    1
    68    34    63    1
    69    36    64    1
    70    38    65    1
    71    40    66    1
    72    41    67    1
    73    42    68    1
