@<TRIPOS>MOLECULE
Procyanidin dimer B5
 68 73 0 0 0
SMALL
GASTEIGER

@<TRIPOS>ATOM
      1 C          -1.6026   -0.1371   -0.8367 C.3     1  UNL1        0.0528
      2 C          -2.3205   -0.0829    0.5380 C.3     1  UNL1        0.1074
      3 O          -2.2375   -1.3315    1.1789 O.3     1  UNL1       -0.3868
      4 C          -3.8054    0.2942    0.3704 C.3     1  UNL1        0.1518
      5 O          -4.4363   -0.5971   -0.5525 O.3     1  UNL1       -0.4811
      6 C          -3.7873   -1.1168   -1.6800 C.ar    1  UNL1        0.1323
      7 C          -4.5380   -1.8320   -2.6169 C.ar    1  UNL1        0.0221
      8 C          -3.9491   -2.2737   -3.8055 C.ar    1  UNL1        0.1238
      9 O          -4.6922   -2.9854   -4.7447 O.3     1  UNL1       -0.5065
     10 C          -2.6088   -1.9829   -4.0642 C.ar    1  UNL1        0.0218
     11 C          -1.8398   -1.2767   -3.1286 C.ar    1  UNL1        0.1276
     12 O          -0.5200   -0.9459   -3.4360 O.3     1  UNL1       -0.5062
     13 C          -2.4071   -0.8978   -1.8888 C.ar    1  UNL1        0.0461
     14 C          -3.9787    1.7520   -0.0237 C.ar    1  UNL1       -0.0012
     15 C          -3.8296    2.7439    0.9601 C.ar    1  UNL1       -0.0098
     16 C          -3.9445    4.1029    0.6436 C.ar    1  UNL1        0.1586
     17 O          -3.7845    5.0288    1.6765 O.3     1  UNL1       -0.5033
     18 C          -4.2122    4.4861   -0.6909 C.ar    1  UNL1        0.1582
     19 O          -4.3416    5.8202   -1.0824 O.3     1  UNL1       -0.5033
     20 C          -4.3552    3.4999   -1.6719 C.ar    1  UNL1       -0.0162
     21 C          -4.2383    2.1473   -1.3479 C.ar    1  UNL1       -0.0513
     22 C          -0.1693   -0.6472   -0.6498 C.ar    1  UNL1        0.0461
     23 C           0.8881    0.2821   -0.4953 C.ar    1  UNL1        0.1309
     24 O           0.5931    1.6502   -0.4993 O.3     1  UNL1       -0.5060
     25 C           2.2175   -0.1731   -0.3274 C.ar    1  UNL1        0.0387
     26 C           2.4657   -1.5564   -0.2203 C.ar    1  UNL1        0.1317
     27 O           3.7618   -2.0359    0.0078 O.3     1  UNL1       -0.4811
     28 C           4.8229   -1.1813    0.4367 C.3     1  UNL1        0.1513
     29 C           4.7423    0.1131   -0.4017 C.3     1  UNL1        0.1004
     30 O           5.8067    0.9798   -0.1098 O.3     1  UNL1       -0.3875
     31 C           3.3740    0.8038   -0.2259 C.3     1  UNL1        0.0092
     32 C           4.7683   -1.0510    1.9608 C.ar    1  UNL1       -0.0012
     33 C           4.5727   -2.2261    2.7135 C.ar    1  UNL1       -0.0098
     34 C           4.5379   -2.1958    4.1114 C.ar    1  UNL1        0.1586
     35 O           4.3258   -3.3842    4.8098 O.3     1  UNL1       -0.5033
     36 C           4.7180   -0.9806    4.7873 C.ar    1  UNL1        0.1582
     37 O           4.6809   -0.9414    6.1803 O.3     1  UNL1       -0.5033
     38 C           4.9398    0.1906    4.0554 C.ar    1  UNL1       -0.0162
     39 C           4.9757    0.1584    2.6589 C.ar    1  UNL1       -0.0513
     40 C           1.4230   -2.4690   -0.3472 C.ar    1  UNL1        0.0224
     41 C           0.1126   -2.0315   -0.5550 C.ar    1  UNL1        0.1277
     42 O          -0.9102   -2.9749   -0.6605 O.3     1  UNL1       -0.5062
     43 H          -1.5648    0.9034   -1.2241 H       1  UNL1        0.0429
     44 H          -1.8096    0.6860    1.1659 H       1  UNL1        0.0643
     45 H          -2.3910   -1.1713    2.1468 H       1  UNL1        0.2100
     46 H          -4.3130    0.1571    1.3506 H       1  UNL1        0.0811
     47 H          -5.5885   -2.0181   -2.4316 H       1  UNL1        0.0691
     48 H          -5.6687   -3.2073   -4.5896 H       1  UNL1        0.2921
     49 H          -2.1665   -2.2973   -5.0013 H       1  UNL1        0.0691
     50 H          -0.0960   -1.2089   -4.3179 H       1  UNL1        0.2921
     51 H          -3.6173    2.4593    1.9839 H       1  UNL1        0.0659
     52 H          -3.8453    6.0291    1.5527 H       1  UNL1        0.2923
     53 H          -4.2579    6.6043   -0.4517 H       1  UNL1        0.2923
     54 H          -4.5574    3.7854   -2.6967 H       1  UNL1        0.0655
     55 H          -4.3522    1.4216   -2.1394 H       1  UNL1        0.0623
     56 H           1.2789    2.3724   -0.3232 H       1  UNL1        0.2922
     57 H           5.7833   -1.6834    0.1899 H       1  UNL1        0.0811
     58 H           4.8277   -0.1955   -1.4712 H       1  UNL1        0.0637
     59 H           5.8172    1.6715   -0.8220 H       1  UNL1        0.2100
     60 H           3.2826    1.5696   -1.0259 H       1  UNL1        0.0342
     61 H           3.3178    1.3217    0.7531 H       1  UNL1        0.0342
     62 H           4.4453   -3.1781    2.2122 H       1  UNL1        0.0659
     63 H           4.2929   -3.4154    5.8217 H       1  UNL1        0.2923
     64 H           4.8097   -0.0754    6.6906 H       1  UNL1        0.2923
     65 H           5.0894    1.1315    4.5700 H       1  UNL1        0.0655
     66 H           5.1605    1.0904    2.1531 H       1  UNL1        0.0623
     67 H           1.6329   -3.5286   -0.2698 H       1  UNL1        0.0691
     68 H          -0.7285   -3.9696   -0.5954 H       1  UNL1        0.2921
@<TRIPOS>BOND
     1     1     2    1
     2     2     3    1
     3     2     4    1
     4     4     5    1
     5     5     6    1
     6     6     7   ar
     7     7     8   ar
     8     8     9    1
     9     8    10   ar
    10    10    11   ar
    11    11    12    1
    12    11    13   ar
    13     4    14    1
    14    14    15   ar
    15    15    16   ar
    16    16    17    1
    17    16    18   ar
    18    18    19    1
    19    18    20   ar
    20    20    21   ar
    21     1    22    1
    22    22    23   ar
    23    23    24    1
    24    23    25   ar
    25    25    26   ar
    26    26    27    1
    27    27    28    1
    28    28    29    1
    29    29    30    1
    30    29    31    1
    31    28    32    1
    32    32    33   ar
    33    33    34   ar
    34    34    35    1
    35    34    36   ar
    36    36    37    1
    37    36    38   ar
    38    38    39   ar
    39    26    40   ar
    40    40    41   ar
    41    41    42    1
    42    13     1    1
    43    21    14   ar
    44    41    22   ar
    45    13     6   ar
    46    31    25    1
    47    39    32   ar
    48     1    43    1
    49     2    44    1
    50     3    45    1
    51     4    46    1
    52     7    47    1
    53     9    48    1
    54    10    49    1
    55    12    50    1
    56    15    51    1
    57    17    52    1
    58    19    53    1
    59    20    54    1
    60    21    55    1
    61    24    56    1
    62    28    57    1
    63    29    58    1
    64    30    59    1
    65    31    60    1
    66    31    61    1
    67    33    62    1
    68    35    63    1
    69    37    64    1
    70    38    65    1
    71    39    66    1
    72    40    67    1
    73    42    68    1
