@<TRIPOS>MOLECULE
Procyanidin dimer B7
 68 73 0 0 0
SMALL
GASTEIGER

@<TRIPOS>ATOM
      1 C          -1.9973   -1.0204    0.1515 C.3     1  UNL1        0.0528
      2 C          -2.8423    0.2132    0.5739 C.3     1  UNL1        0.1074
      3 O          -2.5571    0.5516    1.9085 O.3     1  UNL1       -0.3868
      4 C          -4.3423   -0.0905    0.4380 C.3     1  UNL1        0.1518
      5 O          -4.6304   -0.4896   -0.8994 O.3     1  UNL1       -0.4811
      6 C          -3.8139   -1.3863   -1.5916 C.ar    1  UNL1        0.1323
      7 C          -4.2927   -1.9683   -2.7684 C.ar    1  UNL1        0.0221
      8 C          -3.5291   -2.9259   -3.4433 C.ar    1  UNL1        0.1238
      9 O          -4.0011   -3.5138   -4.6147 O.3     1  UNL1       -0.5065
     10 C          -2.2877   -3.3084   -2.9319 C.ar    1  UNL1        0.0218
     11 C          -1.7882   -2.7211   -1.7608 C.ar    1  UNL1        0.1276
     12 O          -0.5642   -3.1484   -1.2458 O.3     1  UNL1       -0.5062
     13 C          -2.5270   -1.7071   -1.1076 C.ar    1  UNL1        0.0461
     14 C          -5.1795    1.1147    0.7992 C.ar    1  UNL1       -0.0012
     15 C          -5.8126    1.1869    2.0512 C.ar    1  UNL1       -0.0098
     16 C          -6.5664    2.3158    2.4044 C.ar    1  UNL1        0.1586
     17 O          -7.1961    2.3767    3.6466 O.3     1  UNL1       -0.5033
     18 C          -6.6835    3.3872    1.5027 C.ar    1  UNL1        0.1582
     19 O          -7.4267    4.5225    1.8240 O.3     1  UNL1       -0.5033
     20 C          -6.0444    3.3221    0.2608 C.ar    1  UNL1       -0.0162
     21 C          -5.2934    2.1974   -0.0892 C.ar    1  UNL1       -0.0513
     22 C          -0.5322   -0.6022    0.0111 C.ar    1  UNL1        0.0461
     23 C           0.4061   -0.9474    1.0134 C.ar    1  UNL1        0.1309
     24 O          -0.0364   -1.6439    2.1434 O.3     1  UNL1       -0.5060
     25 C           1.7656   -0.5784    0.8711 C.ar    1  UNL1        0.0387
     26 C           2.1535    0.2188   -0.2245 C.ar    1  UNL1        0.1317
     27 O           3.4777    0.6480   -0.3660 O.3     1  UNL1       -0.4811
     28 C           4.4380    0.5084    0.6799 C.3     1  UNL1        0.1513
     29 C           4.2524   -0.8444    1.3944 C.3     1  UNL1        0.1004
     30 O           4.6013   -1.9260    0.5625 O.3     1  UNL1       -0.3875
     31 C           2.8025   -0.9847    1.9020 C.3     1  UNL1        0.0092
     32 C           5.8411    0.6634    0.1392 C.ar    1  UNL1       -0.0012
     33 C           6.1841    0.1768   -1.1351 C.ar    1  UNL1       -0.0098
     34 C           7.4942    0.2928   -1.6135 C.ar    1  UNL1        0.1586
     35 O           7.7964   -0.1937   -2.8849 O.3     1  UNL1       -0.5033
     36 C           8.4808    0.8910   -0.8117 C.ar    1  UNL1        0.1582
     37 O           9.7872    1.0111   -1.2831 O.3     1  UNL1       -0.5033
     38 C           8.1463    1.3630    0.4645 C.ar    1  UNL1       -0.0162
     39 C           6.8378    1.2448    0.9393 C.ar    1  UNL1       -0.0513
     40 C           1.2242    0.5769   -1.1970 C.ar    1  UNL1        0.0224
     41 C          -0.1092    0.1746   -1.0917 C.ar    1  UNL1        0.1277
     42 O          -1.0176    0.5522   -2.0814 O.3     1  UNL1       -0.5062
     43 H          -2.1058   -1.7805    0.9549 H       1  UNL1        0.0429
     44 H          -2.6118    1.0763   -0.0948 H       1  UNL1        0.0643
     45 H          -1.7372    1.1111    1.8968 H       1  UNL1        0.2100
     46 H          -4.5967   -0.9408    1.1108 H       1  UNL1        0.0811
     47 H          -5.2698   -1.6915   -3.1440 H       1  UNL1        0.0691
     48 H          -4.8997   -3.2612   -5.0094 H       1  UNL1        0.2921
     49 H          -1.7118   -4.0695   -3.4436 H       1  UNL1        0.0691
     50 H          -0.0184   -3.8716   -1.6992 H       1  UNL1        0.2921
     51 H          -5.7191    0.3683    2.7543 H       1  UNL1        0.0659
     52 H          -7.1266    1.6181    4.3149 H       1  UNL1        0.2923
     53 H          -7.9074    4.6178    2.7105 H       1  UNL1        0.2923
     54 H          -6.1275    4.1479   -0.4344 H       1  UNL1        0.0655
     55 H          -4.7988    2.1714   -1.0523 H       1  UNL1        0.0623
     56 H           0.5493   -1.8489    2.9418 H       1  UNL1        0.2922
     57 H           4.2454    1.3188    1.4188 H       1  UNL1        0.0811
     58 H           4.9272   -0.8704    2.2781 H       1  UNL1        0.0637
     59 H           3.9797   -1.9327   -0.2109 H       1  UNL1        0.2100
     60 H           2.6515   -2.0439    2.2016 H       1  UNL1        0.0342
     61 H           2.6690   -0.3461    2.8022 H       1  UNL1        0.0342
     62 H           5.4361   -0.2965   -1.7592 H       1  UNL1        0.0659
     63 H           8.7289   -0.1347   -3.2760 H       1  UNL1        0.2923
     64 H          10.5162    1.4377   -0.7233 H       1  UNL1        0.2923
     65 H           8.9017    1.8189    1.0918 H       1  UNL1        0.0655
     66 H           6.6018    1.6061    1.9327 H       1  UNL1        0.0623
     67 H           1.5420    1.1780   -2.0398 H       1  UNL1        0.0691
     68 H          -0.7365    1.1089   -2.8799 H       1  UNL1        0.2921
@<TRIPOS>BOND
     1     1     2    1
     2     2     3    1
     3     2     4    1
     4     4     5    1
     5     5     6    1
     6     6     7   ar
     7     7     8   ar
     8     8     9    1
     9     8    10   ar
    10    10    11   ar
    11    11    12    1
    12    11    13   ar
    13     4    14    1
    14    14    15   ar
    15    15    16   ar
    16    16    17    1
    17    16    18   ar
    18    18    19    1
    19    18    20   ar
    20    20    21   ar
    21     1    22    1
    22    22    23   ar
    23    23    24    1
    24    23    25   ar
    25    25    26   ar
    26    26    27    1
    27    27    28    1
    28    28    29    1
    29    29    30    1
    30    29    31    1
    31    28    32    1
    32    32    33   ar
    33    33    34   ar
    34    34    35    1
    35    34    36   ar
    36    36    37    1
    37    36    38   ar
    38    38    39   ar
    39    26    40   ar
    40    40    41   ar
    41    41    42    1
    42    13     1    1
    43    21    14   ar
    44    41    22   ar
    45    13     6   ar
    46    31    25    1
    47    39    32   ar
    48     1    43    1
    49     2    44    1
    50     3    45    1
    51     4    46    1
    52     7    47    1
    53     9    48    1
    54    10    49    1
    55    12    50    1
    56    15    51    1
    57    17    52    1
    58    19    53    1
    59    20    54    1
    60    21    55    1
    61    24    56    1
    62    28    57    1
    63    29    58    1
    64    30    59    1
    65    31    60    1
    66    31    61    1
    67    33    62    1
    68    35    63    1
    69    37    64    1
    70    38    65    1
    71    39    66    1
    72    40    67    1
    73    42    68    1
