@<TRIPOS>MOLECULE
Prodelphinidin dimer B3
 70 75 0 0 0
SMALL
GASTEIGER

@<TRIPOS>ATOM
      1 O           5.2647   -1.0028   -0.4323 O.3     1  UNL1       -0.3875
      2 C           3.9878   -1.2415    0.1007 C.3     1  UNL1        0.1004
      3 C           3.6859   -2.7499    0.0773 C.3     1  UNL1        0.0092
      4 C           2.2513   -3.0412    0.4548 C.ar    1  UNL1        0.0387
      5 C           1.8874   -4.2991    0.9617 C.ar    1  UNL1        0.1271
      6 O           2.8505   -5.2949    1.1252 O.3     1  UNL1       -0.5063
      7 C           0.5565   -4.5514    1.3096 C.ar    1  UNL1        0.0221
      8 C          -0.4260   -3.5688    1.1402 C.ar    1  UNL1        0.1277
      9 O          -1.7386   -3.8366    1.5300 O.3     1  UNL1       -0.5062
     10 C          -0.0865   -2.3174    0.5783 C.ar    1  UNL1        0.0463
     11 C          -1.1298   -1.2152    0.3987 C.3     1  UNL1        0.0528
     12 C          -1.4038   -0.5464    1.7698 C.3     1  UNL1        0.1074
     13 O          -0.2474    0.0714    2.2737 O.3     1  UNL1       -0.3868
     14 C          -2.5956    0.4354    1.6780 C.3     1  UNL1        0.1520
     15 O          -3.7339   -0.3236    1.2656 O.3     1  UNL1       -0.4811
     16 C          -3.6665   -1.2478    0.2153 C.ar    1  UNL1        0.1323
     17 C          -4.8538   -1.7105   -0.3574 C.ar    1  UNL1        0.0221
     18 C          -4.8172   -2.5738   -1.4572 C.ar    1  UNL1        0.1238
     19 O          -5.9969   -3.0354   -2.0368 O.3     1  UNL1       -0.5065
     20 C          -3.5878   -2.9665   -1.9905 C.ar    1  UNL1        0.0218
     21 C          -2.3879   -2.5227   -1.4168 C.ar    1  UNL1        0.1276
     22 O          -1.1719   -2.8924   -1.9918 O.3     1  UNL1       -0.5062
     23 C          -2.4166   -1.7012   -0.2671 C.ar    1  UNL1        0.0461
     24 C          -2.4420    1.6523    0.7589 C.ar    1  UNL1        0.0023
     25 C          -1.1996    2.1576    0.3245 C.ar    1  UNL1       -0.0095
     26 C          -1.1276    3.2893   -0.4925 C.ar    1  UNL1        0.1623
     27 O           0.1267    3.7280   -0.9180 O.3     1  UNL1       -0.5032
     28 C          -2.2981    3.9659   -0.8737 C.ar    1  UNL1        0.2006
     29 O          -2.1799    5.0877   -1.6986 O.3     1  UNL1       -0.5009
     30 C          -3.5488    3.4963   -0.4130 C.ar    1  UNL1        0.1623
     31 O          -4.7549    4.1258   -0.7292 O.3     1  UNL1       -0.5032
     32 C          -3.6039    2.3580    0.3980 C.ar    1  UNL1       -0.0095
     33 C           1.2614   -2.0599    0.2474 C.ar    1  UNL1        0.1355
     34 O           1.6221   -0.8039   -0.2573 O.3     1  UNL1       -0.4808
     35 C           2.9314   -0.4940   -0.7313 C.3     1  UNL1        0.1514
     36 C           3.1374    1.0011   -0.6664 C.ar    1  UNL1        0.0023
     37 C           2.7850    1.7165    0.4873 C.ar    1  UNL1       -0.0095
     38 C           2.9661    3.0999    0.5511 C.ar    1  UNL1        0.1623
     39 O           2.5856    3.7721    1.7127 O.3     1  UNL1       -0.5032
     40 C           3.5175    3.7930   -0.5425 C.ar    1  UNL1        0.2006
     41 O           3.6744    5.1777   -0.4407 O.3     1  UNL1       -0.5009
     42 C           3.8915    3.0736   -1.7037 C.ar    1  UNL1        0.1623
     43 O           4.4531    3.6888   -2.8248 O.3     1  UNL1       -0.5032
     44 C           3.6997    1.6880   -1.7512 C.ar    1  UNL1       -0.0095
     45 H           5.9194   -1.2699    0.2647 H       1  UNL1        0.2100
     46 H           3.9415   -0.8804    1.1558 H       1  UNL1        0.0637
     47 H           3.8733   -3.1545   -0.9412 H       1  UNL1        0.0342
     48 H           4.3781   -3.2570    0.7840 H       1  UNL1        0.0342
     49 H           2.6129   -6.2097    1.4907 H       1  UNL1        0.2921
     50 H           0.2847   -5.5156    1.7207 H       1  UNL1        0.0691
     51 H          -2.0041   -4.7275    1.9331 H       1  UNL1        0.2921
     52 H          -0.7353   -0.4444   -0.2928 H       1  UNL1        0.0429
     53 H          -1.7055   -1.3496    2.4836 H       1  UNL1        0.0643
     54 H          -0.4240    0.2795    3.2282 H       1  UNL1        0.2100
     55 H          -2.8002    0.8235    2.6990 H       1  UNL1        0.0811
     56 H          -5.8049   -1.3775    0.0388 H       1  UNL1        0.0691
     57 H          -6.9049   -2.7657   -1.6767 H       1  UNL1        0.2921
     58 H          -3.5656   -3.6135   -2.8584 H       1  UNL1        0.0691
     59 H          -1.1290   -3.4813   -2.8152 H       1  UNL1        0.2921
     60 H          -0.2685    1.6883    0.5902 H       1  UNL1        0.0659
     61 H           0.2459    4.5417   -1.5091 H       1  UNL1        0.2923
     62 H          -2.9624    5.6284   -2.0371 H       1  UNL1        0.2924
     63 H          -4.8283    4.9607   -1.2920 H       1  UNL1        0.2923
     64 H          -4.5720    2.0232    0.7511 H       1  UNL1        0.0659
     65 H           3.0003   -0.8407   -1.7872 H       1  UNL1        0.0811
     66 H           2.3596    1.1995    1.3391 H       1  UNL1        0.0659
     67 H           2.6873    4.7744    1.8159 H       1  UNL1        0.2923
     68 H           4.0485    5.7619   -1.1742 H       1  UNL1        0.2924
     69 H           4.6423    4.6781   -2.8934 H       1  UNL1        0.2923
     70 H           3.9899    1.1464   -2.6435 H       1  UNL1        0.0659
@<TRIPOS>BOND
     1     1     2    1
     2     2     3    1
     3     3     4    1
     4     4     5   ar
     5     5     6    1
     6     5     7   ar
     7     7     8   ar
     8     8     9    1
     9     8    10   ar
    10    10    11    1
    11    11    12    1
    12    12    13    1
    13    12    14    1
    14    14    15    1
    15    15    16    1
    16    16    17   ar
    17    17    18   ar
    18    18    19    1
    19    18    20   ar
    20    20    21   ar
    21    21    22    1
    22    21    23   ar
    23    14    24    1
    24    24    25   ar
    25    25    26   ar
    26    26    27    1
    27    26    28   ar
    28    28    29    1
    29    28    30   ar
    30    30    31    1
    31    30    32   ar
    32    10    33   ar
    33    33    34    1
    34    34    35    1
    35    35    36    1
    36    36    37   ar
    37    37    38   ar
    38    38    39    1
    39    38    40   ar
    40    40    41    1
    41    40    42   ar
    42    42    43    1
    43    42    44   ar
    44    35     2    1
    45    44    36   ar
    46    33     4   ar
    47    23    11    1
    48    32    24   ar
    49    23    16   ar
    50     1    45    1
    51     2    46    1
    52     3    47    1
    53     3    48    1
    54     6    49    1
    55     7    50    1
    56     9    51    1
    57    11    52    1
    58    12    53    1
    59    13    54    1
    60    14    55    1
    61    17    56    1
    62    19    57    1
    63    20    58    1
    64    22    59    1
    65    25    60    1
    66    27    61    1
    67    29    62    1
    68    31    63    1
    69    32    64    1
    70    35    65    1
    71    37    66    1
    72    39    67    1
    73    41    68    1
    74    43    69    1
    75    44    70    1
