REMARK VINA RESULT:      -9.1      1.389      1.771
REMARK  16 active torsions:
REMARK  status: ('A' for Active; 'I' for Inactive)
REMARK    1  A    between atoms: O_1  and  C_2 
REMARK    2  A    between atoms: C_5  and  O_6 
REMARK    3  A    between atoms: C_8  and  O_9 
REMARK    4  A    between atoms: C_13  and  C_14 
REMARK    5  A    between atoms: C_18  and  O_19 
REMARK    6  A    between atoms: C_20  and  O_21 
REMARK    7  A    between atoms: C_23  and  C_24 
REMARK    8  A    between atoms: C_29  and  O_30 
REMARK    9  A    between atoms: O_30  and  C_31 
REMARK   10  A    between atoms: C_31  and  C_33 
REMARK   11  A    between atoms: C_35  and  O_36 
REMARK   12  A    between atoms: C_37  and  O_38 
REMARK   13  A    between atoms: C_39  and  O_40 
REMARK   14  A    between atoms: C_42  and  O_43 
REMARK   15  A    between atoms: C_45  and  O_46 
REMARK   16  A    between atoms: C_50  and  O_51 
ROOT
ATOM      1  C   UNL d   1      10.374  -2.962  17.795  0.00  0.00    -0.001 C 
ATOM      2  C   UNL d   1       9.939  -3.453  19.028  0.00  0.00     0.016 C 
ATOM      3  C   UNL d   1       9.548  -2.681  20.140  0.00  0.00    -0.003 A 
ATOM      4  C   UNL d   1       8.665  -1.561  20.026  0.00  0.00     0.078 A 
ATOM      5  C   UNL d   1       8.220  -0.917  21.218  0.00  0.00     0.170 A 
ATOM      6  C   UNL d   1       8.535  -1.450  22.476  0.00  0.00     0.159 A 
ATOM      7  C   UNL d   1       9.400  -2.522  22.576  0.00  0.00     0.057 A 
ATOM      8  C   UNL d   1       9.977  -3.119  21.444  0.00  0.00     0.008 A 
ATOM      9  C   UNL d   1       8.128  -1.088  18.795  0.00  0.00     0.231 C 
ATOM     10  O   UNL d   1       6.986  -0.548  18.812  0.00  0.00    -0.283 OA
ATOM     11  C   UNL d   1       8.782  -1.068  17.558  0.00  0.00     0.165 C 
ATOM     12  C   UNL d   1       9.929  -1.779  17.212  0.00  0.00     0.056 C 
ENDROOT
BRANCH   8  13
ATOM     13  C   UNL d   1      11.054  -4.220  21.601  0.00  0.00     0.245 C 
ATOM     14  O   UNL d   1      12.346  -3.628  21.448  0.00  0.00    -0.480 OA
ATOM     15  C   UNL d   1      13.034  -3.039  22.514  0.00  0.00     0.132 A 
ATOM     16  C   UNL d   1      12.636  -3.280  23.847  0.00  0.00     0.040 A 
ATOM     17  C   UNL d   1      14.132  -2.218  22.243  0.00  0.00     0.091 A 
ATOM     18  C   UNL d   1      11.469  -4.204  24.126  0.00  0.00     0.091 C 
ATOM     19  C   UNL d   1      13.322  -2.627  24.898  0.00  0.00     0.127 A 
ATOM     20  C   UNL d   1      11.093  -5.065  22.904  0.00  0.00     0.226 C 
ATOM     21  C   UNL d   1      14.417  -1.804  24.608  0.00  0.00     0.091 A 
ATOM     22  C   UNL d   1      14.826  -1.602  23.285  0.00  0.00     0.124 A 
BRANCH  20  23
ATOM     23  O   UNL d   1       9.874  -5.769  23.137  0.00  0.00    -0.453 OA
BRANCH  23  24
ATOM     24  C   UNL d   1       9.456  -6.211  24.399  0.00  0.00     0.340 C 
ATOM     25  O   UNL d   1      10.202  -6.961  25.087  0.00  0.00    -0.245 OA
BRANCH  24  26
ATOM     26  C   UNL d   1       8.136  -5.793  24.920  0.00  0.00     0.066 A 
ATOM     27  C   UNL d   1       7.158  -6.753  25.219  0.00  0.00     0.064 A 
ATOM     28  C   UNL d   1       5.909  -6.365  25.722  0.00  0.00     0.163 A 
ATOM     29  C   UNL d   1       5.620  -5.009  25.929  0.00  0.00     0.201 A 
ATOM     30  C   UNL d   1       6.601  -4.034  25.631  0.00  0.00     0.163 A 
ATOM     31  C   UNL d   1       7.846  -4.435  25.130  0.00  0.00     0.064 A 
BRANCH  28  32
ATOM     32  O   UNL d   1       4.945  -7.327  26.018  0.00  0.00    -0.503 OA
ATOM     33  H   UNL d   1       4.236  -7.594  25.345  0.00  0.00     0.292 HD
ENDBRANCH  28  32
BRANCH  29  34
ATOM     34  O   UNL d   1       4.359  -4.677  26.431  0.00  0.00    -0.501 OA
ATOM     35  H   UNL d   1       3.918  -3.778  26.303  0.00  0.00     0.292 HD
ENDBRANCH  29  34
BRANCH  30  36
ATOM     36  O   UNL d   1       6.384  -2.666  25.812  0.00  0.00    -0.503 OA
ATOM     37  H   UNL d   1       6.757  -1.949  25.208  0.00  0.00     0.292 HD
ENDBRANCH  30  36
ENDBRANCH  24  26
ENDBRANCH  23  24
ENDBRANCH  20  23
BRANCH  19  38
ATOM     38  O   UNL d   1      12.940  -2.768  26.234  0.00  0.00    -0.506 OA
ATOM     39  H   UNL d   1      12.512  -3.608  26.603  0.00  0.00     0.292 HD
ENDBRANCH  19  38
BRANCH  22  40
ATOM     40  O   UNL d   1      15.917  -0.786  22.996  0.00  0.00    -0.506 OA
ATOM     41  H   UNL d   1      16.869  -1.103  23.141  0.00  0.00     0.292 HD
ENDBRANCH  22  40
ENDBRANCH   8  13
BRANCH   6  42
ATOM     42  O   UNL d   1       8.002  -0.938  23.663  0.00  0.00    -0.503 OA
ATOM     43  H   UNL d   1       7.061  -0.583  23.754  0.00  0.00     0.292 HD
ENDBRANCH   6  42
BRANCH   5  44
ATOM     44  O   UNL d   1       7.500   0.282  21.130  0.00  0.00    -0.503 OA
ATOM     45  H   UNL d   1       7.781   1.148  21.565  0.00  0.00     0.292 HD
ENDBRANCH   5  44
BRANCH   1  46
ATOM     46  C   UNL d   1      11.328  -3.819  16.972  0.00  0.00     0.232 C 
ATOM     47  O   UNL d   1      10.752  -4.150  15.709  0.00  0.00    -0.481 OA
ATOM     48  C   UNL d   1      11.517  -4.631  14.642  0.00  0.00     0.132 A 
ATOM     49  C   UNL d   1      10.861  -5.132  13.514  0.00  0.00     0.091 A 
ATOM     50  C   UNL d   1      12.927  -4.594  14.691  0.00  0.00     0.038 A 
ATOM     51  C   UNL d   1      11.594  -5.632  12.438  0.00  0.00     0.124 A 
ATOM     52  C   UNL d   1      12.993  -5.639  12.492  0.00  0.00     0.091 A 
ATOM     53  C   UNL d   1      13.666  -5.140  13.614  0.00  0.00     0.127 A 
ATOM     54  C   UNL d   1      13.620  -4.017  15.911  0.00  0.00     0.078 C 
ATOM     55  C   UNL d   1      12.694  -3.129  16.771  0.00  0.00     0.164 C 
BRANCH  51  56
ATOM     56  O   UNL d   1      10.925  -6.127  11.321  0.00  0.00    -0.506 OA
ATOM     57  H   UNL d   1       9.991  -5.812  11.080  0.00  0.00     0.292 HD
ENDBRANCH  51  56
BRANCH  53  58
ATOM     58  O   UNL d   1      15.061  -5.211  13.628  0.00  0.00    -0.506 OA
ATOM     59  H   UNL d   1      15.629  -5.148  12.794  0.00  0.00     0.292 HD
ENDBRANCH  53  58
BRANCH  55  60
ATOM     60  O   UNL d   1      12.553  -1.849  16.202  0.00  0.00    -0.388 OA
ATOM     61  H   UNL d   1      13.114  -1.812  15.385  0.00  0.00     0.210 HD
ENDBRANCH  55  60
ENDBRANCH   1  46
BRANCH  11  62
ATOM     62  O   UNL d   1       8.233  -0.236  16.577  0.00  0.00    -0.503 OA
ATOM     63  H   UNL d   1       8.174   0.770  16.683  0.00  0.00     0.292 HD
ENDBRANCH  11  62
TORSDOF 16
