REMARK VINA RESULT:      -9.1      3.720      7.374
REMARK  16 active torsions:
REMARK  status: ('A' for Active; 'I' for Inactive)
REMARK    1  A    between atoms: O_1  and  C_2 
REMARK    2  A    between atoms: C_5  and  O_6 
REMARK    3  A    between atoms: C_8  and  O_9 
REMARK    4  A    between atoms: C_13  and  C_14 
REMARK    5  A    between atoms: C_18  and  O_19 
REMARK    6  A    between atoms: C_20  and  O_21 
REMARK    7  A    between atoms: C_23  and  C_24 
REMARK    8  A    between atoms: C_29  and  O_30 
REMARK    9  A    between atoms: O_30  and  C_31 
REMARK   10  A    between atoms: C_31  and  C_33 
REMARK   11  A    between atoms: C_35  and  O_36 
REMARK   12  A    between atoms: C_37  and  O_38 
REMARK   13  A    between atoms: C_39  and  O_40 
REMARK   14  A    between atoms: C_42  and  O_43 
REMARK   15  A    between atoms: C_45  and  O_46 
REMARK   16  A    between atoms: C_50  and  O_51 
ROOT
ATOM      1  C   UNL d   1      11.635  -2.148  21.342  0.00  0.00    -0.001 C 
ATOM      2  C   UNL d   1      10.942  -0.941  21.469  0.00  0.00     0.016 C 
ATOM      3  C   UNL d   1      10.497  -0.123  20.412  0.00  0.00    -0.003 A 
ATOM      4  C   UNL d   1       9.816  -0.648  19.268  0.00  0.00     0.078 A 
ATOM      5  C   UNL d   1       9.286   0.267  18.309  0.00  0.00     0.170 A 
ATOM      6  C   UNL d   1       9.317   1.648  18.548  0.00  0.00     0.159 A 
ATOM      7  C   UNL d   1       9.989   2.144  19.648  0.00  0.00     0.057 A 
ATOM      8  C   UNL d   1      10.645   1.303  20.560  0.00  0.00     0.008 A 
ATOM      9  C   UNL d   1       9.556  -2.031  19.057  0.00  0.00     0.231 C 
ATOM     10  O   UNL d   1       8.517  -2.350  18.413  0.00  0.00    -0.283 OA
ATOM     11  C   UNL d   1      10.394  -3.096  19.408  0.00  0.00     0.165 C 
ATOM     12  C   UNL d   1      11.464  -3.052  20.298  0.00  0.00     0.056 C 
ENDROOT
BRANCH   8  13
ATOM     13  C   UNL d   1      11.512   1.901  21.695  0.00  0.00     0.245 C 
ATOM     14  O   UNL d   1      12.396   2.875  21.137  0.00  0.00    -0.480 OA
ATOM     15  C   UNL d   1      12.022   4.210  20.949  0.00  0.00     0.132 A 
ATOM     16  C   UNL d   1      10.877   4.732  21.589  0.00  0.00     0.040 A 
ATOM     17  C   UNL d   1      12.805   5.027  20.130  0.00  0.00     0.091 A 
ATOM     18  C   UNL d   1      10.061   3.845  22.507  0.00  0.00     0.091 C 
ATOM     19  C   UNL d   1      10.497   6.071  21.337  0.00  0.00     0.127 A 
ATOM     20  C   UNL d   1      10.815   2.564  22.914  0.00  0.00     0.226 C 
ATOM     21  C   UNL d   1      11.291   6.873  20.508  0.00  0.00     0.091 A 
ATOM     22  C   UNL d   1      12.445   6.356  19.909  0.00  0.00     0.124 A 
BRANCH  20  23
ATOM     23  O   UNL d   1       9.949   1.666  23.607  0.00  0.00    -0.453 OA
BRANCH  23  24
ATOM     24  C   UNL d   1       8.605   1.462  23.273  0.00  0.00     0.340 C 
ATOM     25  O   UNL d   1       8.032   2.230  22.452  0.00  0.00    -0.245 OA
BRANCH  24  26
ATOM     26  C   UNL d   1       7.860   0.340  23.887  0.00  0.00     0.066 A 
ATOM     27  C   UNL d   1       8.094  -0.977  23.467  0.00  0.00     0.064 A 
ATOM     28  C   UNL d   1       7.400  -2.045  24.050  0.00  0.00     0.163 A 
ATOM     29  C   UNL d   1       6.459  -1.809  25.061  0.00  0.00     0.201 A 
ATOM     30  C   UNL d   1       6.217  -0.483  25.493  0.00  0.00     0.163 A 
ATOM     31  C   UNL d   1       6.918   0.575  24.903  0.00  0.00     0.064 A 
BRANCH  28  32
ATOM     32  O   UNL d   1       7.641  -3.351  23.627  0.00  0.00    -0.503 OA
ATOM     33  H   UNL d   1       8.496  -3.839  23.869  0.00  0.00     0.292 HD
ENDBRANCH  28  32
BRANCH  29  34
ATOM     34  O   UNL d   1       5.794  -2.909  25.609  0.00  0.00    -0.501 OA
ATOM     35  H   UNL d   1       5.106  -2.846  26.345  0.00  0.00     0.292 HD
ENDBRANCH  29  34
BRANCH  30  36
ATOM     36  O   UNL d   1       5.295  -0.172  26.495  0.00  0.00    -0.503 OA
ATOM     37  H   UNL d   1       5.199  -0.690  27.356  0.00  0.00     0.292 HD
ENDBRANCH  30  36
ENDBRANCH  24  26
ENDBRANCH  23  24
ENDBRANCH  20  23
BRANCH  19  38
ATOM     38  O   UNL d   1       9.341   6.631  21.883  0.00  0.00    -0.506 OA
ATOM     39  H   UNL d   1       9.328   7.524  22.359  0.00  0.00     0.292 HD
ENDBRANCH  19  38
BRANCH  22  40
ATOM     40  O   UNL d   1      13.238   7.155  19.087  0.00  0.00    -0.506 OA
ATOM     41  H   UNL d   1      12.885   7.532  18.215  0.00  0.00     0.292 HD
ENDBRANCH  22  40
ENDBRANCH   8  13
BRANCH   6  42
ATOM     42  O   UNL d   1       8.683   2.569  17.709  0.00  0.00    -0.503 OA
ATOM     43  H   UNL d   1       7.991   3.235  18.021  0.00  0.00     0.292 HD
ENDBRANCH   6  42
BRANCH   5  44
ATOM     44  O   UNL d   1       8.773  -0.221  17.100  0.00  0.00    -0.503 OA
ATOM     45  H   UNL d   1       8.505   0.361  16.319  0.00  0.00     0.292 HD
ENDBRANCH   5  44
BRANCH   1  46
ATOM     46  C   UNL d   1      12.572  -2.565  22.469  0.00  0.00     0.232 C 
ATOM     47  O   UNL d   1      12.983  -1.433  23.234  0.00  0.00    -0.481 OA
ATOM     48  C   UNL d   1      13.559  -1.556  24.501  0.00  0.00     0.132 A 
ATOM     49  C   UNL d   1      14.127  -0.427  25.097  0.00  0.00     0.091 A 
ATOM     50  C   UNL d   1      13.550  -2.794  25.180  0.00  0.00     0.038 A 
ATOM     51  C   UNL d   1      14.722  -0.520  26.355  0.00  0.00     0.124 A 
ATOM     52  C   UNL d   1      14.757  -1.751  27.020  0.00  0.00     0.091 A 
ATOM     53  C   UNL d   1      14.191  -2.892  26.438  0.00  0.00     0.127 A 
ATOM     54  C   UNL d   1      12.901  -4.001  24.530  0.00  0.00     0.078 C 
ATOM     55  C   UNL d   1      11.931  -3.626  23.388  0.00  0.00     0.164 C 
BRANCH  51  56
ATOM     56  O   UNL d   1      15.282   0.616  26.935  0.00  0.00    -0.506 OA
ATOM     57  H   UNL d   1      15.020   1.549  26.635  0.00  0.00     0.292 HD
ENDBRANCH  51  56
BRANCH  53  58
ATOM     58  O   UNL d   1      14.293  -4.101  27.130  0.00  0.00    -0.506 OA
ATOM     59  H   UNL d   1      14.114  -4.191  28.121  0.00  0.00     0.292 HD
ENDBRANCH  53  58
BRANCH  55  60
ATOM     60  O   UNL d   1      10.693  -3.192  23.901  0.00  0.00    -0.388 OA
ATOM     61  H   UNL d   1      10.854  -2.788  24.793  0.00  0.00     0.210 HD
ENDBRANCH  55  60
ENDBRANCH   1  46
BRANCH  11  62
ATOM     62  O   UNL d   1      10.134  -4.323  18.789  0.00  0.00    -0.503 OA
ATOM     63  H   UNL d   1      10.600  -4.615  17.937  0.00  0.00     0.292 HD
ENDBRANCH  11  62
TORSDOF 16
